         108

C       -0.2999220084         0.9468890999         2.3798645468 
H       -0.9729481405         1.5532425310         3.0043572130 
H       -0.8269568644         0.6642992526         1.4614833611 
H       -0.0378873382         0.0288990317         2.9266908925 
O        0.8853644359         1.6742323506         2.0038053166 
H        1.3303591008         1.9767320789         2.8532370496 
H        3.9596738215         0.6642992526         1.4614833611 
C        4.4867086775         0.9468890999         2.3798645468 
H        3.8136825454         1.5532425310         3.0043572130 
H        4.7487433477         0.0288990317         2.9266908925 
O        5.6719951218         1.6742323506         2.0038053166 
H        6.1169897867         1.9767320789         2.8532370496 
C       -0.4455186497         4.6333088392         2.1856275671 
H       -1.4974441645         4.3033233173         2.1610628678 
H       -0.0056604127         4.3314342367         3.1469623308 
H       -0.4191743170         5.7276327165         2.1112103639 
O        0.3057990316         4.0936564183         1.0872256926 
H        0.5229924630         3.1373404302         1.3184167155 
C       -4.3219152572        -0.9468890999        -0.8620394151 
H       -4.9949413893        -1.5532425310        -0.2375467490 
H       -4.8489501132        -0.6642992526        -1.7804206008 
O       -3.1366288129        -1.6742323506        -1.2380986453 
H       -4.0598805870        -0.0288990317        -0.3152130694 
H       -2.6916341480        -1.9767320789        -0.3886669124 
H       -0.0623194273        -0.6642992526        -1.7804206008 
C        0.4647154287        -0.9468890999        -0.8620394151 
H       -0.2083107034        -1.5532425310        -0.2375467490 
O        1.6500018730        -1.6742323506        -1.2380986453 
H        0.7267500989        -0.0288990317        -0.3152130694 
H        2.0949965379        -1.9767320789        -0.3886669124 
H       -0.8697008815        -2.2166220161        -3.3368455930 
C       -1.3095591185        -1.9147474136        -4.2981803567 
O       -0.5582414372        -2.4543998345        -5.3965822312 
H       -1.2832147857        -0.8204235363        -4.3725975600 
H       -2.3614846332        -2.2447329355        -4.3227450560 
H       -0.3410480057        -3.4107158226        -5.1653912084 
H       -0.7328067274        -4.3033233173        -1.0808410941 
C        0.3191187874        -4.6333088392        -1.0562763948 
O        1.0704364687        -4.0936564183        -2.1546782693 
H        0.7589770244        -4.3314342367        -0.0949416311 
H        0.3454631201        -5.7276327165        -1.1306935981 
H        1.2876299001        -3.1373404302        -1.9234872465 
H       -3.4990007858        -3.1373404302        -1.9234872465 
O       -3.7161942172        -4.0936564183        -2.1546782693 
C       -4.4675118985        -4.6333088392        -1.0562763948 
H       -5.5194374133        -4.3033233173        -1.0808410941 
H       -4.0276536615        -4.3314342367        -0.0949416311 
H       -4.4411675658        -5.7276327165        -1.1306935981 
H       -1.5915943015        -0.6642992526         4.7033873231 
C       -1.0645594455        -0.9468890999         5.6217685088 
H       -1.7375855776        -1.5532425310         6.2462611749 
O        0.1207269988        -1.6742323506         5.2457092786 
H       -0.8025247753        -0.0288990317         6.1685948545 
H        0.5657216637        -1.9767320789         6.0951410115 
H       -2.3989757557        -2.2166220161         3.1469623308 
C       -2.8388339927        -1.9147474136         2.1856275671 
O       -2.0875163114        -2.4543998345         1.0872256926 
H       -2.8124896599        -0.8204235363         2.1112103639 
H       -3.8907595074        -2.2447329355         2.1610628678 
H       -1.8703228799        -3.4107158226         1.3184167155 
H       -3.2952431499         0.0288990317        -3.5571170313 
C       -3.5572778201         0.9468890999        -4.1039433770 
H       -4.2303039522         1.5532425310        -3.4794507109 
H       -4.0843126761         0.6642992526        -5.0223245627 
O       -2.3719913758         1.6742323506        -4.4800026072 
H       -1.9269967109         1.9767320789        -3.6305708743 
H        0.7023180098         0.6642992526        -5.0223245627 
C        1.2293528658         0.9468890999        -4.1039433770 
H        0.5563267337         1.5532425310        -3.4794507109 
H        1.4913875360         0.0288990317        -3.5571170313 
O        2.4146393101         1.6742323506        -4.4800026072 
H        2.8596339750         1.9767320789        -3.6305708743 
O       -0.7433134700         4.8738239022        -1.2380986453 
C       -1.9285999142         5.6011671529        -0.8620394151 
H       -0.2983188051         4.5713241739        -0.3886669124 
H       -1.6665652440         6.5191572211        -0.3152130694 
H       -2.4556347703         5.8837570002        -1.7804206008 
H       -2.6016260463         4.9948137218        -0.2375467490 
H       -1.6343383186         2.2166220161        -0.0949416311 
C       -2.0741965556         1.9147474136        -1.0562763948 
O       -1.3228788743         2.4543998345        -2.1546782693 
H       -2.0478522228         0.8204235363        -1.1306935981 
H       -3.1261220703         2.2447329355        -1.0808410941 
H       -1.1056854428         3.4107158226        -1.9234872465 
O       -3.9012662500         1.6742323506         2.0038053166 
H       -3.4562715851         1.9767320789         2.8532370496 
C       -5.0865526943         0.9468890999         2.3798645468 
H       -5.7595788264         1.5532425310         3.0043572130 
H       -5.6135875503         0.6642992526         1.4614833611 
H       -4.8245180241         0.0288990317         2.9266908925 
H        4.7243112586        -0.6642992526        -1.7804206008 
C        5.2513461146        -0.9468890999        -0.8620394151 
H        4.5783199825        -1.5532425310        -0.2375467490 
O        6.4366325589        -1.6742323506        -1.2380986453 
H        5.5133807848        -0.0288990317        -0.3152130694 
H        6.8816272238        -1.9767320789        -0.3886669124 
H        2.3876549302        -2.2166220161         3.1469623308 
C        1.9477966932        -1.9147474136         2.1856275671 
O        2.6991143745        -2.4543998345         1.0872256926 
H        1.9741410260        -0.8204235363         2.1112103639 
H        0.8958711785        -2.2447329355         2.1610628678 
H        2.9163078060        -3.4107158226         1.3184167155 
H        3.1522923673         2.2166220161        -0.0949416311 
C        2.7124341303         1.9147474136        -1.0562763948 
O        3.4637518116         2.4543998345        -2.1546782693 
H        2.7387784631         0.8204235363        -1.1306935981 
H        1.6605086156         2.2447329355        -1.0808410941 
H        3.6809452431         3.4107158226        -1.9234872465 
