         120

C        3.5226313013         1.8911594851         2.2618867878 
H        3.5294775514         1.2760923961         1.3519571634 
O        4.6010038624         2.8157527418         2.1797252489 
H        3.6338909139         1.2226438188         3.1321054936 
H        2.5422035710         2.3946910216         2.3322123702 
H        4.6121991767         3.3618989779         3.0286263410 
H        0.3868455485         1.2760923961         0.8664498523 
C        0.3936917985         1.8911594851        -0.0434797721 
O       -0.6846807625         2.8157527418         0.0386817668 
H        0.2824321859         1.2226438188        -0.9136984779 
H        1.3741195289         2.3946910216        -0.1138053545 
H       -0.6958760769         3.3618989779        -0.8102193253 
H        1.2446006107         4.6449323906         2.1046016612 
C        0.2641728804         5.1484639271         2.1749272436 
H        0.1529132678         5.8169795934         1.3047085378 
O       -0.8141996807         4.2238706704         2.2570887825 
H        0.2573266303         5.7635310161         3.0848568680 
H       -0.8253949950         3.6777244343         1.4081876904 
H        0.0233943496         1.2226438188         3.5231155536 
C        0.1346539623         1.8911594851         4.3933342593 
H        0.1278077122         1.2760923961         5.3032638837 
O       -0.9437185988         2.8157527418         4.4754957983 
H        1.1150816926         2.3946910216         4.3230086769 
H       -0.9549139131         3.3618989779         3.6265947061 
O       -3.4906801735         2.8157527418         2.1797252489 
C       -4.5690527346         1.8911594851         2.2618867878 
H       -3.4794848592         3.3618989779         3.0286263410 
H       -4.5622064845         1.2760923961         1.3519571634 
H       -4.4577931220         1.2226438188         3.1321054936 
H       -5.5494804649         2.3946910216         2.3322123702 
C       -3.5226313013        -1.8911594851        -2.2618867878 
H       -2.5422035710        -2.3946910216        -2.3322123702 
H       -3.6338909139        -1.2226438188        -3.1321054936 
O       -4.6010038624        -2.8157527418        -2.1797252489 
H       -3.5294775514        -1.2760923961        -1.3519571634 
H       -4.6121991767        -3.3618989779        -3.0286263410 
H       -0.3868455485        -1.2760923961        -0.8664498523 
C       -0.3936917985        -1.8911594851         0.0434797721 
H       -1.3741195289        -2.3946910216         0.1138053545 
O        0.6846807625        -2.8157527418        -0.0386817668 
H       -0.2824321859        -1.2226438188         0.9136984779 
H        0.6958760769        -3.3618989779         0.8102193253 
H       -1.2446006107        -4.6449323906        -2.1046016612 
C       -0.2641728804        -5.1484639271        -2.1749272436 
O        0.8141996807        -4.2238706704        -2.2570887825 
H       -0.2573266303        -5.7635310161        -3.0848568680 
H       -0.1529132678        -5.8169795934        -1.3047085378 
H        0.8253949950        -3.6777244343        -1.4081876904 
H       -0.0233943496        -1.2226438188        -3.5231155536 
C       -0.1346539623        -1.8911594851        -4.3933342593 
H       -1.1150816926        -2.3946910216        -4.3230086769 
H       -0.1278077122        -1.2760923961        -5.3032638837 
O        0.9437185988        -2.8157527418        -4.4754957983 
H        0.9549139131        -3.3618989779        -3.6265947061 
O        3.4906801735        -2.8157527418        -2.1797252489 
H        3.4794848592        -3.3618989779        -3.0286263410 
C        4.5690527346        -1.8911594851        -2.2618867878 
H        5.5494804649        -2.3946910216        -2.3322123702 
H        4.4577931220        -1.2226438188        -3.1321054936 
H        4.5622064845        -1.2760923961        -1.3519571634 
H       -3.8929287502        -1.2226438188         1.3047085378 
C       -3.7816691376        -1.8911594851         2.1749272436 
H       -2.8012414072        -2.3946910216         2.1046016612 
O       -4.8600416986        -2.8157527418         2.2570887825 
H       -3.7885153876        -1.2760923961         3.0848568680 
H       -4.8712370130        -3.3618989779         1.4081876904 
C        3.7816691376         1.8911594851        -2.1749272436 
H        3.7885153876         1.2760923961        -3.0848568680 
O        4.8600416986         2.8157527418        -2.2570887825 
H        3.8929287502         1.2226438188        -1.3047085378 
H        2.8012414072         2.3946910216        -2.1046016612 
H        4.8712370130         3.3618989779        -1.4081876904 
H        0.6458833847         1.2760923961        -3.5703641791 
C        0.6527296347         1.8911594851        -4.4802938036 
O       -0.4256429263         2.8157527418        -4.3981322646 
H        0.5414700221         1.2226438188        -5.3505125093 
H        1.6331573651         2.3946910216        -4.5506193859 
H       -0.4368382407         3.3618989779        -5.2470333567 
H       -4.1987552857         1.2226438188        -1.3047085378 
C       -4.3100148983         1.8911594851        -2.1749272436 
H       -4.3031686483         1.2760923961        -3.0848568680 
O       -3.2316423373         2.8157527418        -2.2570887825 
H       -5.2904426287         2.3946910216        -2.1046016612 
H       -3.2204470229         3.3618989779        -1.4081876904 
O       -0.5551618444         4.2238706704        -2.1797252489 
C        0.5232107166         5.1484639271        -2.2618867878 
H       -0.5663571588         3.6777244343        -3.0286263410 
H        1.5036384470         4.6449323906        -2.3322123702 
H        0.4119511040         5.8169795934        -3.1321054936 
H        0.5163644666         5.7635310161        -1.3519571634 
H       -3.3499659410         3.6777244343         0.8102193253 
O       -3.3611612554         4.2238706704        -0.0386817668 
C       -4.4395338164         5.1484639271         0.0434797721 
H       -5.4199615468         4.6449323906         0.1138053545 
H       -4.4326875664         5.7635310161        -0.8664498523 
H       -4.3282742038         5.8169795934         0.9136984779 
H        3.3499659410        -3.6777244343        -0.8102193253 
O        3.3611612554        -4.2238706704         0.0386817668 
C        4.4395338164        -5.1484639271        -0.0434797721 
H        4.4326875664        -5.7635310161         0.8664498523 
H        4.3282742038        -5.8169795934        -0.9136984779 
H        5.4199615468        -4.6449323906        -0.1138053545 
H       -0.6458833847        -1.2760923961         3.5703641791 
C       -0.6527296347        -1.8911594851         4.4802938036 
H       -1.6331573651        -2.3946910216         4.5506193859 
O        0.4256429263        -2.8157527418         4.3981322646 
H       -0.5414700221        -1.2226438188         5.3505125093 
H        0.4368382407        -3.3618989779         5.2470333567 
H        4.1987552857        -1.2226438188         1.3047085378 
C        4.3100148983        -1.8911594851         2.1749272436 
H        5.2904426287        -2.3946910216         2.1046016612 
O        3.2316423373        -2.8157527418         2.2570887825 
H        4.3031686483        -1.2760923961         3.0848568680 
H        3.2204470229        -3.3618989779         1.4081876904 
O        0.5551618444        -4.2238706704         2.1797252489 
C       -0.5232107166        -5.1484639271         2.2618867878 
H        0.5663571588        -3.6777244343         3.0286263410 
H       -0.5163644666        -5.7635310161         1.3519571634 
H       -0.4119511040        -5.8169795934         3.1321054936 
H       -1.5036384470        -4.6449323906         2.3322123702 
