         132

H        4.5776392427         2.4100325309         0.9459993114 
C        5.1951428750         3.2920098979         0.7479049655 
O        6.2856321023         2.8970307419        -0.1075042634 
H        5.5711820625         3.6880941573         1.7025932570 
H        4.5777467185         4.0499754572         0.2467961000 
H        6.9013848860         3.6890057703        -0.1919922960 
O        0.8006042308         0.8262269347         0.1075042634 
C        1.8910934581         1.2212060906        -0.7479049655 
H        0.1848514471         1.6182019630         0.1919922960 
H        2.5085970904         0.3392287236        -0.9459993114 
H        2.5084896146         1.9791716499        -0.2467961000 
H        1.5150542706         1.6172903500        -1.7025932570 
H        1.5964568710         4.0783627622         1.4877629000 
O        2.1349760092         3.4378750588         2.0088449340 
C        2.6345456194         4.1151603052         3.1635628760 
H        1.8351343589         4.3495582472         3.8878420811 
H        3.1470462663         5.0554285525         2.8954534613 
H        3.3627140896         3.4478925047         3.6466220060 
H        3.1470462663         0.9138209380         2.8954534613 
C        2.6345456194        -0.0264473093         3.1635628760 
H        1.8351343589         0.2079506327         3.8878420811 
H        3.3627140896        -0.6937151098         3.6466220060 
O        2.1349760092        -0.7037325557         2.0088449340 
H        1.5964568710        -0.0632448523         1.4877629000 
H       -4.5777467185        -2.1624359646        -0.2467961000 
C       -5.1951428750        -2.9204015239        -0.7479049655 
H       -4.5776392427        -3.8023788909        -0.9459993114 
O       -6.2856321023        -3.3153806798         0.1075042634 
H       -5.5711820625        -2.5243172645        -1.7025932570 
H       -6.9013848860        -2.5234056515         0.1919922960 
O       -0.8006042308        -1.2445768726        -0.1075042634 
C       -1.8910934581        -0.8495977166         0.7479049655 
H       -0.1848514471        -0.4526018442        -0.1919922960 
H       -1.5150542706        -0.4535134572         1.7025932570 
H       -2.5085970904        -1.7315750836         0.9459993114 
H       -2.5084896146        -0.0916321573         0.2467961000 
H       -1.5964568710        -2.1340486595        -1.4877629000 
O       -2.1349760092        -2.7745363630        -2.0088449340 
C       -2.6345456194        -2.0972511166        -3.1635628760 
H       -1.8351343589        -1.8628531745        -3.8878420811 
H       -3.1470462663        -1.1569828692        -2.8954534613 
H       -3.3627140896        -2.7645189170        -3.6466220060 
C       -0.5901705382        -2.0972511166         3.8749351916 
H        0.2092407223        -1.8628531745         3.1506559866 
H       -1.1026711851        -1.1569828692         4.1430446064 
O       -0.0906009280        -2.7745363630         5.0296531337 
H       -1.3183390084        -2.7645189170         3.3918760617 
H        0.4479182102        -2.1340486595         5.5507351677 
H       -3.7235222435        -0.6937151098         3.6466220060 
C       -4.4516907137        -0.0264473093         3.1635628760 
H       -5.2511019742         0.2079506327         3.8878420811 
H       -3.9391900668         0.9138209380         2.8954534613 
O       -4.9512603239        -0.7037325557         2.0088449340 
H       -5.4897794621        -0.0632448523         1.4877629000 
H       -4.5777467185         1.9791716499        -0.2467961000 
C       -5.1951428750         1.2212060906        -0.7479049655 
H       -4.5776392427         0.3392287236        -0.9459993114 
O       -6.2856321023         0.8262269347         0.1075042634 
H       -5.5711820625         1.6172903500        -1.7025932570 
H       -6.9013848860         1.6182019630         0.1919922960 
O       -0.8006042308         2.8970307419        -0.1075042634 
C       -1.8910934581         3.2920098979         0.7479049655 
H       -0.1848514471         3.6890057703        -0.1919922960 
H       -1.5150542706         3.6880941573         1.7025932570 
H       -2.5085970904         2.4100325309         0.9459993114 
H       -2.5084896146         4.0499754572         0.2467961000 
H       -1.5964568710         2.0075589550        -1.4877629000 
O       -2.1349760092         1.3670712515        -2.0088449340 
C       -2.6345456194         2.0443564979        -3.1635628760 
H       -1.8351343589         2.2787544400        -3.8878420811 
H       -3.1470462663         2.9846247453        -2.8954534613 
H       -3.3627140896         1.3770886975        -3.6466220060 
O       -0.0906009280         1.3670712515         5.0296531337 
H        0.4479182102         2.0075589550         5.5507351677 
C       -0.5901705382         2.0443564979         3.8749351916 
H        0.2092407223         2.2787544400         3.1506559866 
H       -1.1026711851         2.9846247453         4.1430446064 
H       -1.3183390084         1.3770886975         3.3918760617 
C        1.8910934581        -2.9204015239        -0.7479049655 
H        2.5085970904        -3.8023788909        -0.9459993114 
H        2.5084896146        -2.1624359646        -0.2467961000 
O        0.8006042308        -3.3153806798         0.1075042634 
H        1.5150542706        -2.5243172645        -1.7025932570 
H        0.1848514471        -2.5234056515         0.1919922960 
O        0.0906009280        -0.7037325557        -5.0296531337 
C        0.5901705382        -0.0264473093        -3.8749351916 
H       -0.4479182102        -0.0632448523        -5.5507351677 
H       -0.2092407223         0.2079506327        -3.1506559866 
H        1.1026711851         0.9138209380        -4.1430446064 
H        1.3183390084        -0.6937151098        -3.3918760617 
H        3.9391900668        -1.1569828692        -2.8954534613 
C        4.4516907137        -2.0972511166        -3.1635628760 
H        5.2511019742        -1.8628531745        -3.8878420811 
O        4.9512603239        -2.7745363630        -2.0088449340 
H        3.7235222435        -2.7645189170        -3.6466220060 
H        5.4897794621        -2.1340486595        -1.4877629000 
H       -0.2092407223        -3.9336569818        -3.1506559866 
C        0.5901705382        -4.1680549238        -3.8749351916 
H        1.1026711851        -3.2277866765        -4.1430446064 
H        1.3183390084        -4.8353227243        -3.3918760617 
O        0.0906009280        -4.8453401702        -5.0296531337 
H       -0.4479182102        -4.2048524668        -5.5507351677 
H        4.5777467185        -0.0916321573         0.2467961000 
C        5.1951428750        -0.8495977166         0.7479049655 
O        6.2856321023        -1.2445768726        -0.1075042634 
H        5.5711820625        -0.4535134572         1.7025932570 
H        4.5776392427        -1.7315750836         0.9459993114 
H        6.9013848860        -0.4526018442        -0.1919922960 
H        1.3183390084         3.4478925047        -3.3918760617 
C        0.5901705382         4.1151603052        -3.8749351916 
H       -0.2092407223         4.3495582472        -3.1506559866 
H        1.1026711851         5.0554285525        -4.1430446064 
O        0.0906009280         3.4378750588        -5.0296531337 
H       -0.4479182102         4.0783627622        -5.5507351677 
H        2.5085970904         4.4808363381        -0.9459993114 
C        1.8910934581         5.3628137051        -0.7479049655 
H        2.5084896146         6.1207792644        -0.2467961000 
O        0.8006042308         4.9678345492         0.1075042634 
H        1.5150542706         5.7588979645        -1.7025932570 
H        0.1848514471         5.7598095775         0.1919922960 
H       -0.1848514471        -4.5942094587        -0.1919922960 
O       -0.8006042308        -5.3861844871        -0.1075042634 
C       -1.8910934581        -4.9912053311         0.7479049655 
H       -1.5150542706        -4.5951210717         1.7025932570 
H       -2.5085970904        -5.8731826981         0.9459993114 
H       -2.5084896146        -4.2332397718         0.2467961000 
H        1.5964568710        -4.2048524668         1.4877629000 
O        2.1349760092        -4.8453401702         2.0088449340 
C        2.6345456194        -4.1680549238         3.1635628760 
H        1.8351343589        -3.9336569818         3.8878420811 
H        3.1470462663        -3.2277866765         2.8954534613 
H        3.3627140896        -4.8353227243         3.6466220060 
