         108

C        3.2609593541         1.7277166813         0.2622038100 
H        2.3638852958         1.3850217061        -0.2845218357 
H        4.1580334124         1.3850217061        -0.2845218357 
H        3.2609593541         1.2495237700         1.2517981703 
O        3.2609593541         3.1304798066         0.4461663469 
H        3.2609593541         3.5904092904        -0.4488198367 
C        0.0000000000         1.7277166813         2.0733902265 
H        0.0000000000         1.2495237700         1.0837958662 
O        0.0000000000         3.1304798066         1.8894276896 
H       -0.8970740583         1.3850217061         2.6201158721 
H        0.8970740583         1.3850217061         2.6201158721 
H        0.0000000000         3.5904092904         2.7844138732 
H        2.3638852958         1.3850217061         4.3866662372 
C        3.2609593541         1.7277166813         4.9333918829 
H        4.1580334124         1.3850217061         4.3866662372 
H        3.2609593541         1.2495237700         5.9229862432 
O        3.2609593541         3.1304798066         5.1173544198 
H        3.2609593541         3.5904092904         4.2223682362 
H        0.0000000000         3.8308888913         0.4488198367 
O        0.0000000000         4.2908183751        -0.4461663469 
C        0.0000000000         5.6935815004        -0.2622038100 
H        0.8970740583         6.0362764756         0.2845218357 
H       -0.8970740583         6.0362764756         0.2845218357 
H        0.0000000000         6.1717744117        -1.2517981703 
C       -3.2609593541        -1.7277166813        -0.2622038100 
H       -4.1580334124        -1.3850217061         0.2845218357 
H       -2.3638852958        -1.3850217061         0.2845218357 
O       -3.2609593541        -3.1304798066        -0.4461663469 
H       -3.2609593541        -1.2495237700        -1.2517981703 
H       -3.2609593541        -3.5904092904         0.4488198367 
H       -0.8970740583        -1.3850217061        -2.6201158721 
C       -0.0000000000        -1.7277166813        -2.0733902265 
H        0.8970740583        -1.3850217061        -2.6201158721 
O       -0.0000000000        -3.1304798066        -1.8894276896 
H       -0.0000000000        -1.2495237700        -1.0837958662 
H       -0.0000000000        -3.5904092904        -2.7844138732 
H       -2.3638852958        -1.3850217061        -4.3866662372 
C       -3.2609593541        -1.7277166813        -4.9333918829 
H       -4.1580334124        -1.3850217061        -4.3866662372 
O       -3.2609593541        -3.1304798066        -5.1173544198 
H       -3.2609593541        -1.2495237700        -5.9229862432 
H       -3.2609593541        -3.5904092904        -4.2223682362 
H       -3.2609593541        -1.2495237700         3.4193899026 
C       -3.2609593541        -1.7277166813         4.4089842629 
H       -4.1580334124        -1.3850217061         4.9557099086 
H       -2.3638852958        -1.3850217061         4.9557099086 
O       -3.2609593541        -3.1304798066         4.2250217260 
H       -3.2609593541        -3.5904092904         5.1200079096 
H       -0.8970740583        -1.3850217061         2.0510722008 
C        0.0000000000        -1.7277166813         2.5977978464 
H        0.8970740583        -1.3850217061         2.0510722008 
O       -0.0000000000        -3.1304798066         2.7817603833 
H        0.0000000000        -1.2495237700         3.5873922067 
H       -0.0000000000        -3.5904092904         1.8867741997 
H       -3.2609593541         1.2495237700        -3.4193899026 
C       -3.2609593541         1.7277166813        -4.4089842629 
H       -4.1580334124         1.3850217061        -4.9557099086 
H       -2.3638852958         1.3850217061        -4.9557099086 
O       -3.2609593541         3.1304798066        -4.2250217260 
H       -3.2609593541         3.5904092904        -5.1200079096 
H       -2.3638852958         1.3850217061        -0.2845218357 
C       -3.2609593541         1.7277166813         0.2622038100 
H       -4.1580334124         1.3850217061        -0.2845218357 
H       -3.2609593541         1.2495237700         1.2517981703 
O       -3.2609593541         3.1304798066         0.4461663469 
H       -3.2609593541         3.5904092904        -0.4488198367 
H       -0.8970740583         1.3850217061        -2.0510722008 
C       -0.0000000000         1.7277166813        -2.5977978464 
H       -0.0000000000         1.2495237700        -3.5873922067 
O        0.0000000000         3.1304798066        -2.7817603833 
H        0.8970740583         1.3850217061        -2.0510722008 
H        0.0000000000         3.5904092904        -1.8867741997 
H       -2.3638852958         1.3850217061         4.3866662372 
C       -3.2609593541         1.7277166813         4.9333918829 
H       -4.1580334124         1.3850217061         4.3866662372 
H       -3.2609593541         1.2495237700         5.9229862432 
O       -3.2609593541         3.1304798066         5.1173544198 
H       -3.2609593541         3.5904092904         4.2223682362 
C        3.2609593541        -1.7277166813        -0.2622038100 
H        2.3638852958        -1.3850217061         0.2845218357 
H        4.1580334124        -1.3850217061         0.2845218357 
O        3.2609593541        -3.1304798066        -0.4461663469 
H        3.2609593541        -1.2495237700        -1.2517981703 
H        3.2609593541        -3.5904092904         0.4488198367 
H        2.3638852958        -1.3850217061        -4.3866662372 
C        3.2609593541        -1.7277166813        -4.9333918829 
H        4.1580334124        -1.3850217061        -4.3866662372 
O        3.2609593541        -3.1304798066        -5.1173544198 
H        3.2609593541        -1.2495237700        -5.9229862432 
H        3.2609593541        -3.5904092904        -4.2223682362 
H       -0.0000000000        -3.8308888913        -0.4488198367 
O       -0.0000000000        -4.2908183751         0.4461663469 
C       -0.0000000000        -5.6935815004         0.2622038100 
H       -0.8970740583        -6.0362764756        -0.2845218357 
H        0.8970740583        -6.0362764756        -0.2845218357 
H       -0.0000000000        -6.1717744117         1.2517981703 
H        3.2609593541        -1.2495237700         3.4193899026 
C        3.2609593541        -1.7277166813         4.4089842629 
H        2.3638852958        -1.3850217061         4.9557099086 
H        4.1580334124        -1.3850217061         4.9557099086 
O        3.2609593541        -3.1304798066         4.2250217260 
H        3.2609593541        -3.5904092904         5.1200079096 
H        3.2609593541         1.2495237700        -3.4193899026 
C        3.2609593541         1.7277166813        -4.4089842629 
H        2.3638852958         1.3850217061        -4.9557099086 
H        4.1580334124         1.3850217061        -4.9557099086 
O        3.2609593541         3.1304798066        -4.2250217260 
H        3.2609593541         3.5904092904        -5.1200079096 
