         120

C        0.9370691491         2.5112391336         1.8321049016 
O        0.8315343758         1.6289490477         0.7080316726 
H        1.2736783061         1.9602421306         2.7272499237 
H       -0.0545377386         2.9390551627         2.0352645821 
H        1.6390702595         3.3324017311         1.6262609435 
H        1.6958539430         1.6600914828         0.1849180533 
C       -3.4445262874        -2.5112391336        -1.8321049016 
H       -4.4361331751        -2.9390551627        -2.0352645821 
H       -2.7425251770        -3.3324017311        -1.6262609435 
H       -3.1079171304        -1.9602421306        -2.7272499237 
O       -3.5500610607        -1.6289490477        -0.7080316726 
H       -2.6857414935        -1.6600914828        -0.1849180533 
H       -0.0545377386        -2.9390551627        -2.0352645821 
C        0.9370691491        -2.5112391336        -1.8321049016 
H        1.6390702595        -3.3324017311        -1.6262609435 
H        1.2736783061        -1.9602421306        -2.7272499237 
O        0.8315343758        -1.6289490477        -0.7080316726 
H        1.6958539430        -1.6600914828        -0.1849180533 
H       -1.2736783061        -1.9602421306        -4.2688716554 
C       -0.9370691491        -2.5112391336        -5.1640166775 
H        0.0545377386        -2.9390551627        -4.9608569970 
H       -1.6390702595        -3.3324017311        -5.3698606356 
O       -0.8315343758        -1.6289490477        -6.2880899065 
H       -1.6958539430        -1.6600914828        -6.8112035258 
H       -0.4949437753        -5.1025061653        -0.1849180533 
O       -1.3592633425        -5.0713637302        -0.7080316726 
C       -1.2537285691        -5.9536538161        -1.8321049016 
H       -2.2453354568        -6.3814698452        -2.0352645821 
H       -0.9171194121        -5.4026568131        -2.7272499237 
H       -0.5517274587        -6.7748164136        -1.6262609435 
C       -1.2537285691        -0.9311755489         1.8321049016 
H       -2.2453354568        -0.5033595198         2.0352645821 
O       -1.3592633425        -1.8134656348         0.7080316726 
H       -0.5517274587        -0.1100129514         1.6262609435 
H       -0.9171194121        -1.4821725519         2.7272499237 
H       -0.4949437753        -1.7823231997         0.1849180533 
H       -0.0545377386        -3.9457742023         2.0352645821 
C        0.9370691491        -4.3735902314         1.8321049016 
O        0.8315343758        -5.2558803173         0.7080316726 
H        1.2736783061        -4.9245872344         2.7272499237 
H        1.6390702595        -3.5524276339         1.6262609435 
H        1.6958539430        -5.2247378822         0.1849180533 
H       -2.7425251770        -3.5524276339         1.6262609435 
C       -3.4445262874        -4.3735902314         1.8321049016 
O       -3.5500610607        -5.2558803173         0.7080316726 
H       -3.1079171304        -4.9245872344         2.7272499237 
H       -4.4361331751        -3.9457742023         2.0352645821 
H       -2.6857414935        -5.2247378822         0.1849180533 
C       -1.2537285691         0.9311755489        -1.8321049016 
H       -2.2453354568         0.5033595198        -2.0352645821 
H       -0.9171194121         1.4821725519        -2.7272499237 
O       -1.3592633425         1.8134656348        -0.7080316726 
H       -0.5517274587         0.1100129514        -1.6262609435 
H       -0.4949437753         1.7823231997        -0.1849180533 
H       -0.0545377386         3.9457742023        -2.0352645821 
C        0.9370691491         4.3735902314        -1.8321049016 
H        1.6390702595         3.5524276339        -1.6262609435 
H        1.2736783061         4.9245872344        -2.7272499237 
O        0.8315343758         5.2558803173        -0.7080316726 
H        1.6958539430         5.2247378822        -0.1849180533 
H       -2.7425251770         3.5524276339        -1.6262609435 
C       -3.4445262874         4.3735902314        -1.8321049016 
H       -4.4361331751         3.9457742023        -2.0352645821 
H       -3.1079171304         4.9245872344        -2.7272499237 
O       -3.5500610607         5.2558803173        -0.7080316726 
H       -2.6857414935         5.2247378822        -0.1849180533 
C       -3.4445262874         2.5112391336         1.8321049016 
O       -3.5500610607         1.6289490477         0.7080316726 
H       -3.1079171304         1.9602421306         2.7272499237 
H       -4.4361331751         2.9390551627         2.0352645821 
H       -2.7425251770         3.3324017311         1.6262609435 
H       -2.6857414935         1.6600914828         0.1849180533 
H       -1.2736783061         1.9602421306         4.2688716554 
C       -0.9370691491         2.5112391336         5.1640166775 
H        0.0545377386         2.9390551627         4.9608569970 
O       -0.8315343758         1.6289490477         6.2880899065 
H       -1.6390702595         3.3324017311         5.3698606356 
H       -1.6958539430         1.6600914828         6.8112035258 
H       -0.4949437753         5.1025061653         0.1849180533 
O       -1.3592633425         5.0713637302         0.7080316726 
C       -1.2537285691         5.9536538161         1.8321049016 
H       -2.2453354568         6.3814698452         2.0352645821 
H       -0.5517274587         6.7748164136         1.6262609435 
H       -0.9171194121         5.4026568131         2.7272499237 
C        3.1278668674        -0.9311755489         1.8321049016 
H        2.1362599797        -0.5033595198         2.0352645821 
O        3.0223320940        -1.8134656348         0.7080316726 
H        3.8298679778        -0.1100129514         1.6262609435 
H        3.4644760244        -1.4821725519         2.7272499237 
H        3.8866516612        -1.7823231997         0.1849180533 
H        0.9171194121        -1.4821725519         4.2688716554 
C        1.2537285691        -0.9311755489         5.1640166775 
O        1.3592633425        -1.8134656348         6.2880899065 
H        0.5517274587        -0.1100129514         5.3698606356 
H        2.2453354568        -0.5033595198         4.9608569970 
H        0.4949437753        -1.7823231997         6.8112035258 
C        3.1278668674         0.9311755489        -1.8321049016 
H        2.1362599797         0.5033595198        -2.0352645821 
H        3.4644760244         1.4821725519        -2.7272499237 
O        3.0223320940         1.8134656348        -0.7080316726 
H        3.8298679778         0.1100129514        -1.6262609435 
H        3.8866516612         1.7823231997        -0.1849180533 
H        0.9171194121         1.4821725519        -4.2688716554 
C        1.2537285691         0.9311755489        -5.1640166775 
O        1.3592633425         1.8134656348        -6.2880899065 
H        0.5517274587         0.1100129514        -5.3698606356 
H        2.2453354568         0.5033595198        -4.9608569970 
H        0.4949437753         1.7823231997        -6.8112035258 
H       -4.9333228952        -0.1100129514         1.6262609435 
C       -5.6353240056        -0.9311755489         1.8321049016 
H       -6.6269308933        -0.5033595198         2.0352645821 
O       -5.7408587790        -1.8134656348         0.7080316726 
H       -5.2987148486        -1.4821725519         2.7272499237 
H       -4.8765392118        -1.7823231997         0.1849180533 
H       -4.9333228952         0.1100129514        -1.6262609435 
C       -5.6353240056         0.9311755489        -1.8321049016 
H       -6.6269308933         0.5033595198        -2.0352645821 
H       -5.2987148486         1.4821725519        -2.7272499237 
O       -5.7408587790         1.8134656348        -0.7080316726 
H       -4.8765392118         1.7823231997        -0.1849180533 
