         120

C        1.2755341538         0.8971062792         1.1119594140 
O        2.4601274789         1.7107204613         1.1615010376 
H        0.3562628301         1.5057288557         1.1269023067 
H        1.2731294033         0.2647094773         0.2112742277 
H        1.2823767098         0.2395652937         1.9901019248 
H        2.4952033453         2.2559227044         0.3108288755 
H        0.3723492810         3.3451262916         3.3362853580 
C        1.2916206047         3.9537488681         3.3213424653 
O        2.4762139297         3.1401346860         3.3708840889 
H        1.2892158542         4.5861456700         2.4206572789 
H        1.2984631606         4.6112898536         4.1994849761 
H        2.5112897962         2.5949324429         2.5202119268 
C       -1.2755341538        -0.8971062792        -1.1119594140 
O       -2.4601274789        -1.7107204613        -1.1615010376 
H       -0.3562628301        -1.5057288557        -1.1269023067 
H       -1.2731294033        -0.2647094773        -0.2112742277 
H       -1.2823767098        -0.2395652937        -1.9901019248 
H       -2.4952033453        -2.2559227044        -0.3108288755 
H       -0.3723492810        -3.3451262916        -3.3362853580 
C       -1.2916206047        -3.9537488681        -3.3213424653 
O       -2.4762139297        -3.1401346860        -3.3708840889 
H       -1.2892158542        -4.5861456700        -2.4206572789 
H       -1.2984631606        -4.6112898536        -4.1994849761 
H       -2.5112897962        -2.5949324429        -2.5202119268 
C       -1.2594477030        -3.9537488681         1.0974236372 
O       -2.4440410280        -3.1401346860         1.0478820136 
H       -0.3401763792        -3.3451262916         1.0824807445 
H       -1.2570429524        -4.5861456700         1.9981088235 
H       -1.2662902589        -4.6112898536         0.2192811264 
H       -2.4791168945        -2.5949324429         1.8985541757 
C       -1.2433612521        -0.8971062792         3.3068066885 
O       -2.4279545771        -1.7107204613         3.2572650649 
H       -0.3240899283        -1.5057288557         3.2918637958 
H       -1.2409565016        -0.2647094773         4.2074918748 
H       -1.2502038080        -0.2395652937         2.4286641777 
H       -2.4630304436        -2.2559227044         4.1079372270 
C       -3.6963216005         0.8971062792        -3.3068066885 
O       -2.5117282755         1.7107204613        -3.2572650649 
H       -4.6155929243         1.5057288557        -3.2918637958 
H       -3.6987263510         0.2647094773        -4.2074918748 
H       -3.6894790446         0.2395652937        -2.4286641777 
H       -2.4766524090         2.2559227044        -4.1079372270 
O       -2.4956418246         3.1401346860        -1.0478820136 
C       -3.6802351496         3.9537488681        -1.0974236372 
H       -2.4605659581         2.5949324429        -1.8985541757 
H       -4.5995064734         3.3451262916        -1.0824807445 
H       -3.6826399002         4.5861456700        -1.9981088235 
H       -3.6733925937         4.6112898536        -0.2192811264 
C       -3.6641486988         0.8971062792         1.1119594140 
O       -2.4795553737         1.7107204613         1.1615010376 
H       -4.5834200225         1.5057288557         1.1269023067 
H       -3.6665534493         0.2647094773         0.2112742277 
H       -3.6573061428         0.2395652937         1.9901019248 
H       -2.4444795073         2.2559227044         0.3108288755 
H       -1.2662902589         5.0904204410         0.2192811264 
C       -1.2594477030         5.7479614265         1.0974236372 
O       -2.4440410280         6.5615756086         1.0478820136 
H       -0.3401763792         6.3565840030         1.0824807445 
H       -1.2570429524         5.1155646246         1.9981088235 
H       -2.4791168945         7.1067778517         1.8985541757 
O       -2.4634689229         3.1401346860         3.3708840889 
C       -3.6480622479         3.9537488681         3.3213424653 
H       -2.4283930564         2.5949324429         2.5202119268 
H       -4.5673335716         3.3451262916         3.3362853580 
H       -3.6504669984         4.5861456700         2.4206572789 
H       -3.6412196920         4.6112898536         4.1994849761 
C        3.6641486988        -0.8971062792        -1.1119594140 
O        2.4795553737        -1.7107204613        -1.1615010376 
H        4.5834200225        -1.5057288557        -1.1269023067 
H        3.6665534493        -0.2647094773        -0.2112742277 
H        3.6573061428        -0.2395652937        -1.9901019248 
H        2.4444795073        -2.2559227044        -0.3108288755 
H        1.2662902589        -5.0904204410        -0.2192811264 
C        1.2594477030        -5.7479614265        -1.0974236372 
O        2.4440410280        -6.5615756086        -1.0478820136 
H        0.3401763792        -6.3565840030        -1.0824807445 
H        1.2570429524        -5.1155646246        -1.9981088235 
H        2.4791168945        -7.1067778517        -1.8985541757 
O        2.4634689229        -3.1401346860        -3.3708840889 
H        2.4283930564        -2.5949324429        -2.5202119268 
C        3.6480622479        -3.9537488681        -3.3213424653 
H        4.5673335716        -3.3451262916        -3.3362853580 
H        3.6504669984        -4.5861456700        -2.4206572789 
H        3.6412196920        -4.6112898536        -4.1994849761 
C        3.6963216005        -0.8971062792         3.3068066885 
O        2.5117282755        -1.7107204613         3.2572650649 
H        4.6155929243        -1.5057288557         3.2918637958 
H        3.6987263510        -0.2647094773         4.2074918748 
H        3.6894790446        -0.2395652937         2.4286641777 
H        2.4766524090        -2.2559227044         4.1079372270 
O        2.4956418246        -3.1401346860         1.0478820136 
H        2.4605659581        -2.5949324429         1.8985541757 
C        3.6802351496        -3.9537488681         1.0974236372 
H        4.5995064734        -3.3451262916         1.0824807445 
H        3.6826399002        -4.5861456700         1.9981088235 
H        3.6733925937        -4.6112898536         0.2192811264 
C        1.2433612521         0.8971062792        -3.3068066885 
O        2.4279545771         1.7107204613        -3.2572650649 
H        0.3240899283         1.5057288557        -3.2918637958 
H        1.2409565016         0.2647094773        -4.2074918748 
H        1.2502038080         0.2395652937        -2.4286641777 
H        2.4630304436         2.2559227044        -4.1079372270 
C        1.2594477030         3.9537488681        -1.0974236372 
O        2.4440410280         3.1401346860        -1.0478820136 
H        0.3401763792         3.3451262916        -1.0824807445 
H        1.2570429524         4.5861456700        -1.9981088235 
H        1.2662902589         4.6112898536        -0.2192811264 
H        2.4791168945         2.5949324429        -1.8985541757 
H        1.3053023051         0.2647094773         4.6300403302 
C        1.3077070556         0.8971062792         5.5307255165 
O        2.4923003806         1.7107204613         5.5802671401 
H        0.3884357318         1.5057288557         5.5456684092 
H        1.3145496115         0.2395652937         6.4088680273 
H        2.5273762471         2.2559227044         4.7295949780 
H       -1.3053023051        -0.2647094773        -4.6300403302 
C       -1.3077070556        -0.8971062792        -5.5307255165 
O       -2.4923003806        -1.7107204613        -5.5802671401 
H       -0.3884357318        -1.5057288557        -5.5456684092 
H       -1.3145496115        -0.2395652937        -6.4088680273 
H       -2.5273762471        -2.2559227044        -4.7295949780 
