         120

C        1.0641945970         0.7583159685         3.9782093158 
H        1.8830448056         0.0176339187         4.0214086712 
O        0.8995953353         1.2932251739         2.6630257527 
H        0.1342013918         0.2958529359         4.3500367485 
H        1.3294191248         1.5985405775         4.6349606057 
H        0.6500840041         0.5575457364         2.0589723239 
H        4.8562227471         1.0780872573         0.7241144198 
C        5.0635957347         1.3748766708        -0.3157122646 
H        4.4699748762         2.2626816122        -0.5627841055 
O        6.4480334407         1.7221075552        -0.4827549878 
H        4.7977715629         0.5628161805        -1.0081457644 
H        6.9907013224         0.9073650287        -0.2459086793 
C        1.9895007491         3.4965544437         0.3157122646 
H        2.2553249209         2.6844939534         1.0081457644 
H        2.1968737367         3.1997650303        -0.7241144198 
H        2.5831216076         4.3843593852         0.5627841055 
O        0.6050630431         3.8437853282         0.4827549878 
H        0.0623951614         3.0290428016         0.2459086793 
H        2.5831216076         0.1410038393         0.5627841055 
C        1.9895007491        -0.7468011022         0.3157122646 
H        2.2553249209        -1.5588615925         1.0081457644 
H        2.1968737367        -1.0435905156        -0.7241144198 
O        0.6050630431        -0.3995702177         0.4827549878 
H        0.0623951614        -1.2143127443         0.2459086793 
C       -1.0641945970        -1.3633618044        -3.9782093158 
O       -0.8995953353        -0.8284525991        -2.6630257527 
H       -0.1342013918        -1.8258248371        -4.3500367485 
H       -1.3294191248        -0.5231371955        -4.6349606057 
H       -1.8830448056        -2.1040438542        -4.0214086712 
H       -0.6500840041        -1.5641320365        -2.0589723239 
H       -4.8562227471        -1.0435905156        -0.7241144198 
C       -5.0635957347        -0.7468011022         0.3157122646 
H       -4.7977715629        -1.5588615925         1.0081457644 
H       -4.4699748762         0.1410038393         0.5627841055 
O       -6.4480334407        -0.3995702177         0.4827549878 
H       -6.9907013224        -1.2143127443         0.2459086793 
C       -1.9895007491        -2.8684788751        -0.3157122646 
H       -2.5831216076        -1.9806739337        -0.5627841055 
H       -2.1968737367        -3.1652682886         0.7241144198 
O       -0.6050630431        -2.5212479907        -0.4827549878 
H       -2.2553249209        -3.6805393654        -1.0081457644 
H       -0.0623951614        -3.3359905172        -0.2459086793 
C       -2.2851608736        -1.3633618044         3.1227000037 
O       -2.1205616119        -0.8284525991         4.4378835668 
H       -1.3551676684        -1.8258248371         2.7508725710 
H       -2.5503854015        -0.5231371955         2.4659487138 
H       -3.1040110822        -2.1040438542         3.0795006483 
H       -1.8710502808        -1.5641320365         5.0419369956 
C       -1.0641945970         2.8799937415        -3.9782093158 
O       -0.8995953353         3.4149029468        -2.6630257527 
H       -0.1342013918         2.4175307088        -4.3500367485 
H       -1.3294191248         3.7202183504        -4.6349606057 
H       -1.8830448056         2.1393116917        -4.0214086712 
H       -0.6500840041         2.6792235094        -2.0589723239 
H       -3.9490854016         0.0176339187        -3.0795006483 
C       -4.7679356102         0.7583159685        -3.1227000037 
O       -4.9325348719         1.2932251739        -4.4378835668 
H       -5.6979288154         0.2958529359        -2.7508725710 
H       -4.5027110823         1.5985405775        -2.4659487138 
H       -5.1820462030         0.5575457364        -5.0419369956 
C       -1.9895007491         1.3748766708        -0.3157122646 
H       -2.5831216076         2.2626816122        -0.5627841055 
H       -2.1968737367         1.0780872573         0.7241144198 
O       -0.6050630431         1.7221075552        -0.4827549878 
H       -2.2553249209         0.5628161805        -1.0081457644 
H       -0.0623951614         0.9073650287        -0.2459086793 
C       -2.2851608736         2.8799937415         3.1227000037 
O       -2.1205616119         3.4149029468         4.4378835668 
H       -1.3551676684         2.4175307088         2.7508725710 
H       -2.5503854015         3.7202183504         2.4659487138 
H       -3.1040110822         2.1393116917         3.0795006483 
H       -1.8710502808         2.6792235094         5.0419369956 
H       -0.0623951614         5.1507205746        -0.2459086793 
O       -0.6050630431         5.9654631011        -0.4827549878 
C       -1.9895007491         5.6182322167        -0.3157122646 
H       -2.5831216076         6.5060371581        -0.5627841055 
H       -2.1968737367         5.3214428032         0.7241144198 
H       -2.2553249209         4.8061717264        -1.0081457644 
C        2.2851608736        -3.4850395774        -3.1227000037 
H        3.1040110822        -4.2257216272        -3.0795006483 
O        2.1205616119        -2.9501303720        -4.4378835668 
H        1.3551676684        -3.9475026100        -2.7508725710 
H        2.5503854015        -2.6448149684        -2.4659487138 
H        1.8710502808        -3.6858098095        -5.0419369956 
H        4.4699748762        -1.9806739337        -0.5627841055 
C        5.0635957347        -2.8684788751        -0.3157122646 
H        4.8562227471        -3.1652682886         0.7241144198 
O        6.4480334407        -2.5212479907        -0.4827549878 
H        4.7977715629        -3.6805393654        -1.0081457644 
H        6.9907013224        -3.3359905172        -0.2459086793 
H        4.5027110823        -0.5231371955         2.4659487138 
C        4.7679356102        -1.3633618044         3.1227000037 
O        4.9325348719        -0.8284525991         4.4378835668 
H        5.6979288154        -1.8258248371         2.7508725710 
H        3.9490854016        -2.1040438542         3.0795006483 
H        5.1820462030        -1.5641320365         5.0419369956 
O        0.8995953353        -2.9501303720         2.6630257527 
C        1.0641945970        -3.4850395774         3.9782093158 
H        0.6500840041        -3.6858098095         2.0589723239 
H        1.8830448056        -4.2257216272         4.0214086712 
H        0.1342013918        -3.9475026100         4.3500367485 
H        1.3294191248        -2.6448149684         4.6349606057 
H        2.5831216076        -4.1023517066         0.5627841055 
C        1.9895007491        -4.9901566481         0.3157122646 
H        2.2553249209        -5.8022171384         1.0081457644 
H        2.1968737367        -5.2869460615        -0.7241144198 
O        0.6050630431        -4.6429257636         0.4827549878 
H        0.0623951614        -5.4576682902         0.2459086793 
C        2.2851608736         0.7583159685        -3.1227000037 
H        3.1040110822         0.0176339187        -3.0795006483 
O        2.1205616119         1.2932251739        -4.4378835668 
H        1.3551676684         0.2958529359        -2.7508725710 
H        2.5503854015         1.5985405775        -2.4659487138 
H        1.8710502808         0.5575457364        -5.0419369956 
H        0.6500840041         4.8009012823         2.0589723239 
O        0.8995953353         5.5365807198         2.6630257527 
C        1.0641945970         5.0016715144         3.9782093158 
H        1.8830448056         4.2609894646         4.0214086712 
H        0.1342013918         4.5392084818         4.3500367485 
H        1.3294191248         5.8418961234         4.6349606057 
