          96

C        3.8110829759         1.8245362698         0.6266543274 
H        4.2447842195         1.8454263977        -0.3813693350 
O        2.3933413984         1.7297610421         0.4897338482 
H        4.2289343591         0.9535074541         1.1574147489 
H        4.1109977778         2.7458186090         1.1509561158 
H        1.9507554693         1.7310829378         1.3921550354 
C        0.2362479583         4.9017987186         0.6266543274 
H        0.5361627602         3.9805163794         1.1509561158 
H        0.6699492019         4.8809085907        -0.3813693350 
O       -1.1814936192         4.9965739463         0.4897338482 
H        0.6540993415         5.7728275343         1.1574147489 
H       -1.6240795483         4.9952520506         1.3921550354 
O        1.1814936192         1.7297610421         2.8040601985 
C       -0.2362479583         1.8245362698         2.9409806777 
H        1.6240795483         1.7310829378         3.7064813857 
H       -0.6699492019         1.8454263977         1.9329570153 
H       -0.6540993415         0.9535074541         3.4717410992 
H       -0.5361627602         2.7458186090         3.4652824661 
H       -3.0386722573        -3.9805163794        -1.1633702345 
C       -3.3385870592        -4.9017987186        -1.6876720229 
H       -2.9048858156        -4.8809085907        -2.6956956853 
O       -4.7563286367        -4.9965739463        -1.8245925021 
H       -2.9207356760        -5.7728275343        -1.1569116014 
H       -5.1989145658        -4.9952520506        -0.9221713149 
H       -4.2447842195        -1.8454263977        -0.3813693350 
C       -3.8110829759        -1.8245362698         0.6266543274 
H       -4.1109977778        -2.7458186090         1.1509561158 
O       -2.3933413984        -1.7297610421         0.4897338482 
H       -4.2289343591        -0.9535074541         1.1574147489 
H       -1.9507554693        -1.7310829378         1.3921550354 
H       -0.6699492019        -4.8809085907        -0.3813693350 
C       -0.2362479583        -4.9017987186         0.6266543274 
O        1.1814936192        -4.9965739463         0.4897338482 
H       -0.6540993415        -5.7728275343         1.1574147489 
H       -0.5361627602        -3.9805163794         1.1509561158 
H        1.6240795483        -4.9952520506         1.3921550354 
O       -2.3933413984        -1.7297610421        -4.1389188524 
C       -3.8110829759        -1.8245362698        -4.0019983732 
H       -1.9507554693        -1.7310829378        -3.2364976652 
H       -4.1109977778        -2.7458186090        -3.4776965848 
H       -4.2447842195        -1.8454263977        -5.0100220356 
H       -4.2289343591        -0.9535074541        -3.4712379517 
O       -1.1814936192        -1.7297610421        -1.8245925021 
C        0.2362479583        -1.8245362698        -1.6876720229 
H       -1.6240795483        -1.7310829378        -0.9221713149 
H        0.6699492019        -1.8454263977        -2.6956956853 
H        0.5361627602        -2.7458186090        -1.1633702345 
H        0.6540993415        -0.9535074541        -1.1569116014 
O       -1.1814936192        -1.7297610421         2.8040601985 
C        0.2362479583        -1.8245362698         2.9409806777 
H       -1.6240795483        -1.7310829378         3.7064813857 
H        0.6699492019        -1.8454263977         1.9329570153 
H        0.5361627602        -2.7458186090         3.4652824661 
H        0.6540993415        -0.9535074541         3.4717410992 
C       -0.2362479583         1.8245362698        -1.6876720229 
H       -0.6699492019         1.8454263977        -2.6956956853 
O        1.1814936192         1.7297610421        -1.8245925021 
H       -0.6540993415         0.9535074541        -1.1569116014 
H       -0.5361627602         2.7458186090        -1.1633702345 
H        1.6240795483         1.7310829378        -0.9221713149 
H       -2.9048858156         1.8454263977        -0.3813693350 
C       -3.3385870592         1.8245362698         0.6266543274 
O       -4.7563286367         1.7297610421         0.4897338482 
H       -2.9207356760         0.9535074541         1.1574147489 
H       -3.0386722573         2.7458186090         1.1509561158 
H       -5.1989145658         1.7310829378         1.3921550354 
H       -2.9207356760         0.9535074541        -3.4712379517 
C       -3.3385870592         1.8245362698        -4.0019983732 
H       -2.9048858156         1.8454263977        -5.0100220356 
O       -4.7563286367         1.7297610421        -4.1389188524 
H       -3.0386722573         2.7458186090        -3.4776965848 
H       -5.1989145658         1.7310829378        -3.2364976652 
H        2.9048858156        -1.8454263977        -0.3813693350 
C        3.3385870592        -1.8245362698         0.6266543274 
H        3.0386722573        -2.7458186090         1.1509561158 
O        4.7563286367        -1.7297610421         0.4897338482 
H        2.9207356760        -0.9535074541         1.1574147489 
H        5.1989145658        -1.7310829378         1.3921550354 
H        2.9207356760        -0.9535074541        -3.4712379517 
C        3.3385870592        -1.8245362698        -4.0019983732 
H        3.0386722573        -2.7458186090        -3.4776965848 
H        2.9048858156        -1.8454263977        -5.0100220356 
O        4.7563286367        -1.7297610421        -4.1389188524 
H        5.1989145658        -1.7310829378        -3.2364976652 
H        3.0386722573         3.9805163794        -1.1633702345 
C        3.3385870592         4.9017987186        -1.6876720229 
H        2.9048858156         4.8809085907        -2.6956956853 
O        4.7563286367         4.9965739463        -1.8245925021 
H        2.9207356760         5.7728275343        -1.1569116014 
H        5.1989145658         4.9952520506        -0.9221713149 
O        2.3933413984         1.7297610421        -4.1389188524 
H        1.9507554693         1.7310829378        -3.2364976652 
C        3.8110829759         1.8245362698        -4.0019983732 
H        4.2447842195         1.8454263977        -5.0100220356 
H        4.2289343591         0.9535074541        -3.4712379517 
H        4.1109977778         2.7458186090        -3.4776965848 
