         120

C       -0.0109386298         2.0624272084         1.5901230084 
H        0.3827301647         1.1660937126         1.0798733531 
H        0.6537027863         2.3152611634         2.4293458447 
O       -0.1237207070         3.1550825028         0.6714757918 
H       -1.0093910889         1.8340432854         1.9873950738 
H        0.7350747016         3.6901233649         0.6851262333 
O        2.0509444332         4.5846206765         0.6714757918 
H        2.9097398418         4.0495798145         0.6851262333 
C        2.1637265104         5.6772759709         1.5901230084 
H        1.1652740513         5.9056598939         1.9873950738 
H        2.5573953050         6.5736094668         1.0798733531 
H        2.8283679266         5.4244420160         2.4293458447 
C       -2.2911676728        -2.0624272084        -1.9777511667 
O       -2.4039497500        -3.1550825028        -2.8963983832 
H       -1.8974988783        -1.1660937126        -2.4880008220 
H       -1.6265262567        -2.3152611634        -1.1385283304 
H       -3.2896201320        -1.8340432854        -1.5804791012 
H       -1.5451543415        -3.6901233649        -2.8827479418 
H        0.6295107988        -4.0495798145        -2.8827479418 
O       -0.2292846098        -4.5846206765        -2.8963983832 
C       -0.1165025326        -5.6772759709        -1.9777511667 
H       -1.1149549917        -5.9056598939        -1.5804791012 
H        0.2771662620        -6.5736094668        -2.4880008220 
H        0.5481388836        -5.4244420160        -1.1385283304 
C       -4.3602689103        -2.0624272084         1.5901230084 
O       -4.4730509875        -3.1550825028         0.6714757918 
H       -3.9666001158        -1.1660937126         1.0798733531 
H       -3.6956274942        -2.3152611634         2.4293458447 
H       -5.3587213694        -1.8340432854         1.9873950738 
H       -3.6142555789        -3.6901233649         0.6851262333 
O       -2.2983858473        -4.5846206765         0.6714757918 
H       -1.4395904387        -4.0495798145         0.6851262333 
C       -2.1856037701        -5.6772759709         1.5901230084 
H       -3.1840562292        -5.9056598939         1.9873950738 
H       -1.7919349755        -6.5736094668         1.0798733531 
H       -1.5209623539        -5.4244420160         2.4293458447 
C       -2.2911676728         2.0624272084        -1.9777511667 
H       -1.8974988783         1.1660937126        -2.4880008220 
H       -1.6265262567         2.3152611634        -1.1385283304 
O       -2.4039497500         3.1550825028        -2.8963983832 
H       -3.2896201320         1.8340432854        -1.5804791012 
H       -1.5451543415         3.6901233649        -2.8827479418 
H        0.6295107988         4.0495798145        -2.8827479418 
O       -0.2292846098         4.5846206765        -2.8963983832 
C       -0.1165025326         5.6772759709        -1.9777511667 
H       -1.1149549917         5.9056598939        -1.5804791012 
H        0.2771662620         6.5736094668        -2.4880008220 
H        0.5481388836         5.4244420160        -1.1385283304 
C       -4.3602689103         2.0624272084         1.5901230084 
H       -3.9666001158         1.1660937126         1.0798733531 
H       -3.6956274942         2.3152611634         2.4293458447 
O       -4.4730509875         3.1550825028         0.6714757918 
H       -5.3587213694         1.8340432854         1.9873950738 
H       -3.6142555789         3.6901233649         0.6851262333 
O       -2.2983858473         4.5846206765         0.6714757918 
H       -1.4395904387         4.0495798145         0.6851262333 
C       -2.1856037701         5.6772759709         1.5901230084 
H       -3.1840562292         5.9056598939         1.9873950738 
H       -1.7919349755         6.5736094668         1.0798733531 
H       -1.5209623539         5.4244420160         2.4293458447 
C        2.0581626077        -2.0624272084        -1.9777511667 
O        1.9453805305        -3.1550825028        -2.8963983832 
H        2.4518314022        -1.1660937126        -2.4880008220 
H        2.7228040238        -2.3152611634        -1.1385283304 
H        1.0597101485        -1.8340432854        -1.5804791012 
H        2.8041759390        -3.6901233649        -2.8827479418 
C       -0.0109386298        -2.0624272084         1.5901230084 
O       -0.1237207070        -3.1550825028         0.6714757918 
H        0.3827301647        -1.1660937126         1.0798733531 
H        0.6537027863        -2.3152611634         2.4293458447 
H       -1.0093910889        -1.8340432854         1.9873950738 
H        0.7350747016        -3.6901233649         0.6851262333 
O        2.0509444332        -4.5846206765         0.6714757918 
H        2.9097398418        -4.0495798145         0.6851262333 
C        2.1637265104        -5.6772759709         1.5901230084 
H        1.1652740513        -5.9056598939         1.9873950738 
H        2.5573953050        -6.5736094668         1.0798733531 
H        2.8283679266        -5.4244420160         2.4293458447 
H       -1.6863710727        -1.1660937126         4.6477475281 
C       -2.0800398673        -2.0624272084         5.1579971834 
O       -2.1928219445        -3.1550825028         4.2393499669 
H       -1.4153984512        -2.3152611634         5.9972200197 
H       -3.0784923264        -1.8340432854         5.5552692489 
H       -1.3340265359        -3.6901233649         4.2530004083 
C        2.0581626077         2.0624272084        -1.9777511667 
H        2.4518314022         1.1660937126        -2.4880008220 
H        2.7228040238         2.3152611634        -1.1385283304 
O        1.9453805305         3.1550825028        -2.8963983832 
H        1.0597101485         1.8340432854        -1.5804791012 
H        2.8041759390         3.6901233649        -2.8827479418 
H       -1.6863710727         1.1660937126         4.6477475281 
C       -2.0800398673         2.0624272084         5.1579971834 
H       -1.4153984512         2.3152611634         5.9972200197 
O       -2.1928219445         3.1550825028         4.2393499669 
H       -3.0784923264         1.8340432854         5.5552692489 
H       -1.3340265359         3.6901233649         4.2530004083 
C        4.3383916507        -2.0624272084         1.5901230084 
O        4.2256095735        -3.1550825028         0.6714757918 
H        4.7320604452        -1.1660937126         1.0798733531 
H        5.0030330668        -2.3152611634         2.4293458447 
H        3.3399391916        -1.8340432854         1.9873950738 
H        5.0844049821        -3.6901233649         0.6851262333 
C        4.3383916507         2.0624272084         1.5901230084 
H        4.7320604452         1.1660937126         1.0798733531 
H        5.0030330668         2.3152611634         2.4293458447 
O        4.2256095735         3.1550825028         0.6714757918 
H        3.3399391916         1.8340432854         1.9873950738 
H        5.0844049821         3.6901233649         0.6851262333 
H        0.4425749808        -2.3152611634        -4.7064025054 
C       -0.2220664353        -2.0624272084        -5.5456253417 
O       -0.3348485126        -3.1550825028        -6.4642725583 
H        0.1716023592        -1.1660937126        -6.0558749970 
H       -1.2205188945        -1.8340432854        -5.1483532763 
H        0.5239468960        -3.6901233649        -6.4506221168 
H        0.4425749808         2.3152611634        -4.7064025054 
C       -0.2220664353         2.0624272084        -5.5456253417 
H        0.1716023592         1.1660937126        -6.0558749970 
O       -0.3348485126         3.1550825028        -6.4642725583 
H       -1.2205188945         1.8340432854        -5.1483532763 
H        0.5239468960         3.6901233649        -6.4506221168 
