         132

C        1.6978978265         1.6368498168         0.3994320398 
H        1.1938082350         1.1127878994        -0.4308904974 
H        1.5610016005         2.7236728758         0.2629389644 
O        3.0688523071         1.2730295714         0.4789487233 
H        1.2113851361         1.3407436277         1.3392372707 
H        3.5177583353         1.5531052066        -0.3824613969 
H        1.1938082350         1.1127878994         4.0266154401 
C        1.6978978265         1.6368498168         4.8569379773 
H        1.5610016005         2.7236728758         4.7204449019 
O        3.0688523071         1.2730295714         4.9364546608 
H        1.2113851361         1.3407436277         5.7967432082 
H        3.5177583353         1.5531052066         4.0750445406 
H        1.5610016005         3.9163737133         2.4916919332 
C        1.6978978265         5.0031967723         2.6281850085 
O        3.0688523071         5.3670170177         2.7077016920 
H        1.2113851361         5.2993029614         3.5679902395 
H        1.1938082350         5.5272586897         1.7978624713 
H        3.5177583353         5.0869413825         1.8462915719 
H        3.7849757998         1.7669180879         1.8462915719 
O        4.2338818280         2.0469937232         2.7077016920 
C        5.6048363086         1.6831734777         2.6281850085 
H        6.0913489990         1.9792796668         3.5679902395 
H        5.7417325346         0.5963504188         2.4916919332 
H        6.1089259001         2.2072353952         1.7978624713 
C       -1.6978978265        -1.6368498168        -4.0580738977 
H       -1.1938082350        -1.1127878994        -4.8883964349 
H       -1.2113851361        -1.3407436277        -3.1182686668 
O       -3.0688523071        -1.2730295714        -3.9785572142 
H       -1.5610016005        -2.7236728758        -4.1945669731 
H       -3.5177583353        -1.5531052066        -4.8399673344 
H       -1.1938082350        -1.1127878994        -0.4308904974 
C       -1.6978978265        -1.6368498168         0.3994320398 
H       -1.2113851361        -1.3407436277         1.3392372707 
O       -3.0688523071        -1.2730295714         0.4789487233 
H       -1.5610016005        -2.7236728758         0.2629389644 
H       -3.5177583353        -1.5531052066        -0.3824613969 
H       -1.5610016005        -3.9163737133        -1.9658140043 
C       -1.6978978265        -5.0031967723        -1.8293209290 
H       -1.2113851361        -5.2993029614        -0.8895156980 
O       -3.0688523071        -5.3670170177        -1.7498042455 
H       -1.1938082350        -5.5272586897        -2.6596434662 
H       -3.5177583353        -5.0869413825        -2.6112143656 
O       -4.2338818280        -2.0469937232        -1.7498042455 
C       -5.6048363086        -1.6831734777        -1.8293209290 
H       -3.7849757998        -1.7669180879        -2.6112143656 
H       -6.0913489990        -1.9792796668        -0.8895156980 
H       -5.7417325346        -0.5963504188        -1.9658140043 
H       -6.1089259001        -2.2072353952        -2.6596434662 
H       -1.1938082350        -1.1127878994         4.0266154401 
C       -1.6978978265        -1.6368498168         4.8569379773 
H       -1.2113851361        -1.3407436277         5.7967432082 
O       -3.0688523071        -1.2730295714         4.9364546608 
H       -1.5610016005        -2.7236728758         4.7204449019 
H       -3.5177583353        -1.5531052066         4.0750445406 
H       -1.5610016005        -3.9163737133         2.4916919332 
C       -1.6978978265        -5.0031967723         2.6281850085 
H       -1.2113851361        -5.2993029614         3.5679902395 
O       -3.0688523071        -5.3670170177         2.7077016920 
H       -1.1938082350        -5.5272586897         1.7978624713 
H       -3.5177583353        -5.0869413825         1.8462915719 
H       -3.7849757998        -1.7669180879         1.8462915719 
O       -4.2338818280        -2.0469937232         2.7077016920 
C       -5.6048363086        -1.6831734777         2.6281850085 
H       -6.0913489990        -1.9792796668         3.5679902395 
H       -5.7417325346        -0.5963504188         2.4916919332 
H       -6.1089259001        -2.2072353952         1.7978624713 
C       -1.6978978265         1.6368498168        -1.8293209290 
H       -1.5610016005         2.7236728758        -1.9658140043 
H       -1.2113851361         1.3407436277        -0.8895156980 
O       -3.0688523071         1.2730295714        -1.7498042455 
H       -1.1938082350         1.1127878994        -2.6596434662 
H       -3.5177583353         1.5531052066        -2.6112143656 
H       -3.7849757998         1.7669180879        -0.3824613969 
O       -4.2338818280         2.0469937232         0.4789487233 
C       -5.6048363086         1.6831734777         0.3994320398 
H       -6.1089259001         2.2072353952        -0.4308904974 
H       -6.0913489990         1.9792796668         1.3392372707 
H       -5.7417325346         0.5963504188         0.2629389644 
C       -1.6978978265         1.6368498168         2.6281850085 
H       -1.5610016005         2.7236728758         2.4916919332 
H       -1.2113851361         1.3407436277         3.5679902395 
O       -3.0688523071         1.2730295714         2.7077016920 
H       -1.1938082350         1.1127878994         1.7978624713 
H       -3.5177583353         1.5531052066         1.8462915719 
H       -1.5610016005         3.9163737133         0.2629389644 
C       -1.6978978265         5.0031967723         0.3994320398 
H       -1.1938082350         5.5272586897        -0.4308904974 
H       -1.2113851361         5.2993029614         1.3392372707 
O       -3.0688523071         5.3670170177         0.4789487233 
H       -3.5177583353         5.0869413825        -0.3824613969 
C        1.6978978265        -1.6368498168        -1.8293209290 
O        3.0688523071        -1.2730295714        -1.7498042455 
H        1.2113851361        -1.3407436277        -0.8895156980 
H        1.5610016005        -2.7236728758        -1.9658140043 
H        1.1938082350        -1.1127878994        -2.6596434662 
H        3.5177583353        -1.5531052066        -2.6112143656 
H        3.7849757998        -1.7669180879        -0.3824613969 
O        4.2338818280        -2.0469937232         0.4789487233 
C        5.6048363086        -1.6831734777         0.3994320398 
H        6.1089259001        -2.2072353952        -0.4308904974 
H        6.0913489990        -1.9792796668         1.3392372707 
H        5.7417325346        -0.5963504188         0.2629389644 
C        1.6978978265        -1.6368498168         2.6281850085 
O        3.0688523071        -1.2730295714         2.7077016920 
H        1.2113851361        -1.3407436277         3.5679902395 
H        1.5610016005        -2.7236728758         2.4916919332 
H        1.1938082350        -1.1127878994         1.7978624713 
H        3.5177583353        -1.5531052066         1.8462915719 
H        1.5610016005        -3.9163737133         0.2629389644 
C        1.6978978265        -5.0031967723         0.3994320398 
H        1.1938082350        -5.5272586897        -0.4308904974 
O        3.0688523071        -5.3670170177         0.4789487233 
H        1.2113851361        -5.2993029614         1.3392372707 
H        3.5177583353        -5.0869413825        -0.3824613969 
C        1.6978978265         1.6368498168        -4.0580738977 
H        1.1938082350         1.1127878994        -4.8883964349 
H        1.5610016005         2.7236728758        -4.1945669731 
O        3.0688523071         1.2730295714        -3.9785572142 
H        1.2113851361         1.3407436277        -3.1182686668 
H        3.5177583353         1.5531052066        -4.8399673344 
H        1.5610016005         3.9163737133        -1.9658140043 
C        1.6978978265         5.0031967723        -1.8293209290 
O        3.0688523071         5.3670170177        -1.7498042455 
H        1.2113851361         5.2993029614        -0.8895156980 
H        1.1938082350         5.5272586897        -2.6596434662 
H        3.5177583353         5.0869413825        -2.6112143656 
O        4.2338818280         2.0469937232        -1.7498042455 
C        5.6048363086         1.6831734777        -1.8293209290 
H        3.7849757998         1.7669180879        -2.6112143656 
H        6.0913489990         1.9792796668        -0.8895156980 
H        5.7417325346         0.5963504188        -1.9658140043 
H        6.1089259001         2.2072353952        -2.6596434662 
