         120

C       -0.0748433816         0.0887184875         1.9439946913 
H       -0.0889239782        -1.0074489363         2.0622602366 
O        0.1779262774         0.7614539449         3.1902810032 
H       -1.0304316332         0.4178107064         1.5081102420 
H        0.7384076308         0.3571398943         1.2586873746 
H       -0.5468920498         0.5201332313         3.8421615780 
H        0.4317588449         3.4175198810         2.9042935849 
C        0.4176782483         4.5136873048         3.0225591302 
O        0.1649085892         5.1864227622         1.7762728183 
H        1.3732664998         4.8427795237         3.4584435795 
H       -0.3955727642         4.7821087116         3.7078664469 
H        0.8897269165         4.9451020486         1.1243922435 
H        3.7509162492         0.3206416904         0.8995148346 
O        3.0758498413         0.0730336386         0.1927200551 
C        2.8752267405        -1.3474642093         0.2392330544 
H        3.8141703914        -1.9010893455         0.0806176211 
H        2.1767535663        -1.6181062380        -0.5604915190 
H        2.4384915645        -1.6602483064         1.1999941087 
H        1.5173506933         0.3206416904         4.0670389869 
O        2.1924171012         0.0730336386         4.7738337664 
C        2.3930402021        -1.3474642093         4.7273207671 
H        2.8297753780        -1.6602483064         3.7665597128 
H        3.0915133762        -1.6181062380         5.5270453405 
H        1.4540965511        -1.9010893455         4.8859362004 
H        2.7486785096         2.8068625793         0.5604915190 
C        2.0502053354         3.0775046080        -0.2392330544 
H        2.4869405114         2.7647205109        -1.1999941087 
H        1.1112616845         2.5238794718        -0.0806176211 
O        1.8495822346         4.4980024559        -0.1927200551 
H        1.1745158267         4.7456105077        -0.8995148346 
H       -2.0956566979         2.7647205109         3.7665597128 
C       -2.5323918738         3.0775046080         4.7273207671 
H       -3.4713355248         2.5238794718         4.8859362004 
H       -1.8339186997         2.8068625793         5.5270453405 
O       -2.7330149747         4.4980024559         4.7738337664 
H       -3.4080813826         4.7456105077         4.0670389869 
H        0.0889239782        -1.0074489363        -2.0622602366 
C        0.0748433816         0.0887184875        -1.9439946913 
O       -0.1779262774         0.7614539449        -3.1902810032 
H        1.0304316332         0.4178107064        -1.5081102420 
H       -0.7384076308         0.3571398943        -1.2586873746 
H        0.5468920498         0.5201332313        -3.8421615780 
O       -0.1649085892        -3.6635148724        -1.7762728183 
H       -0.8897269165        -3.9048355860        -1.1243922435 
C       -0.4176782483        -4.3362503298        -3.0225591302 
H        0.3955727642        -4.0678289230        -3.7078664469 
H       -1.3732664998        -4.0071581109        -3.4584435795 
H       -0.4317588449        -5.4324177536        -2.9042935849 
C       -2.8752267405        -1.3474642093        -0.2392330544 
H       -2.4384915645        -1.6602483064        -1.1999941087 
O       -3.0758498413         0.0730336386        -0.1927200551 
H       -2.1767535663        -1.6181062380         0.5604915190 
H       -3.8141703914        -1.9010893455        -0.0806176211 
H       -3.7509162492         0.3206416904        -0.8995148346 
H        2.4058436430        -1.6181062380        -4.4060623024 
C        1.7073704688        -1.3474642093        -5.2057868759 
H        2.1441056448        -1.6602483064        -6.1665479302 
O        1.5067473680         0.0730336386        -5.1592738766 
H        0.7684268179        -1.9010893455        -5.0471714426 
H        0.8316809600         0.3206416904        -5.8660686561 
H       -2.8297753780        -1.6602483064        -3.7665597128 
C       -2.3930402021        -1.3474642093        -4.7273207671 
H       -1.4540965511        -1.9010893455        -4.8859362004 
O       -2.1924171012         0.0730336386        -4.7738337664 
H       -3.0915133762        -1.6181062380        -5.5270453405 
H       -1.5173506933         0.3206416904        -4.0670389869 
H       -1.1745158267        -4.1043271269         0.8995148346 
O       -1.8495822346        -4.3519351787         0.1927200551 
C       -2.0502053354        -5.7724330266         0.2392330544 
H       -1.1112616845        -6.3260581628         0.0806176211 
H       -2.7486785096        -6.0430750553        -0.5604915190 
H       -2.4869405114        -6.0852171237         1.1999941087 
H       -0.4317588449         3.4175198810        -2.9042935849 
C       -0.4176782483         4.5136873048        -3.0225591302 
H        0.3955727642         4.7821087116        -3.7078664469 
H       -1.3732664998         4.8427795237        -3.4584435795 
O       -0.1649085892         5.1864227622        -1.7762728183 
H       -0.8897269165         4.9451020486        -1.1243922435 
H       -2.7486785096         2.8068625793        -0.5604915190 
C       -2.0502053354         3.0775046080         0.2392330544 
H       -1.1112616845         2.5238794718         0.0806176211 
O       -1.8495822346         4.4980024559         0.1927200551 
H       -2.4869405114         2.7647205109         1.1999941087 
H       -1.1745158267         4.7456105077         0.8995148346 
H        2.0956566979         2.7647205109        -3.7665597128 
C        2.5323918738         3.0775046080        -4.7273207671 
H        3.4713355248         2.5238794718        -4.8859362004 
H        1.8339186997         2.8068625793        -5.5270453405 
O        2.7330149747         4.4980024559        -4.7738337664 
H        3.4080813826         4.7456105077        -4.0670389869 
H       -3.5521655761         0.4178107064         3.4584435795 
C       -4.5077538276         0.0887184875         3.0225591302 
H       -4.4936732310        -1.0074489363         2.9042935849 
O       -4.7605234867         0.7614539449         1.7762728183 
H       -5.3210048401         0.3571398943         3.7078664469 
H       -4.0357051594         0.5201332313         1.1243922435 
H        1.1745158267        -4.1043271269        -0.8995148346 
O        1.8495822346        -4.3519351787        -0.1927200551 
C        2.0502053354        -5.7724330266        -0.2392330544 
H        2.4869405114        -6.0852171237        -1.1999941087 
H        1.1112616845        -6.3260581628        -0.0806176211 
H        2.7486785096        -6.0430750553         0.5604915190 
O        0.1649085892        -3.6635148724         1.7762728183 
H        0.8897269165        -3.9048355860         1.1243922435 
C        0.4176782483        -4.3362503298         3.0225591302 
H        0.4317588449        -5.4324177536         2.9042935849 
H        1.3732664998        -4.0071581109         3.4584435795 
H       -0.3955727642        -4.0678289230         3.7078664469 
H       -2.4058436430        -1.6181062380         4.4060623024 
C       -1.7073704688        -1.3474642093         5.2057868759 
H       -0.7684268179        -1.9010893455         5.0471714426 
O       -1.5067473680         0.0730336386         5.1592738766 
H       -2.1441056448        -1.6602483064         6.1665479302 
H       -0.8316809600         0.3206416904         5.8660686561 
H        3.5521655761         0.4178107064        -3.4584435795 
C        4.5077538276         0.0887184875        -3.0225591302 
H        4.4936732310        -1.0074489363        -2.9042935849 
O        4.7605234867         0.7614539449        -1.7762728183 
H        5.3210048401         0.3571398943        -3.7078664469 
H        4.0357051594         0.5201332313        -1.1243922435 
