         102

C        1.3911252734         0.2264505228         1.1858757093 
H        1.0850508151        -0.8319468066         1.2372419849 
O        1.1885202358         0.8963691299         2.4320779845 
H        2.4468198455         0.2662551759         0.8643793705 
H        0.7831527436         0.7368853686         0.4265716418 
H        1.6043748607         0.3318604452         3.1269594233 
H        1.0850508151         3.3347747831         1.2372419849 
C        1.3911252734         4.3931721125         1.1858757093 
O        1.1885202358         5.0630907196         2.4320779845 
H        2.4468198455         4.4329767656         0.8643793705 
H        0.7831527436         4.9036069583         0.4265716418 
H        1.6043748607         4.4985820349         3.1269594233 
H        3.5031922887         2.3315324269         2.8815526057 
C        3.7542955404         3.0642882381         3.6608416710 
O        2.5517138757         3.5234886614         4.3183961697 
H        4.4426975386         2.6013343183         4.3827755090 
H        4.2481185990         3.9323918676         3.2087601890 
H        2.1613499822         2.7426385575         4.8107632122 
C       -1.3911252734        -1.8569102720        -1.1858757093 
O       -1.1885202358        -1.1869916649        -2.4320779845 
H       -2.4468198455        -1.8171056190        -0.8643793705 
H       -0.7831527436        -1.3464754263        -0.4265716418 
H       -1.0850508151        -2.9153076015        -1.2372419849 
H       -1.6043748607        -1.7515003496        -3.1269594233 
H       -3.9406175338        -0.8319468066         1.2372419849 
C       -3.6345430755         0.2264505228         1.1858757093 
O       -3.8371481131         0.8963691299         2.4320779845 
H       -2.5788485034         0.2662551759         0.8643793705 
H       -4.2425156053         0.7368853686         0.4265716418 
H       -3.4212934882         0.3318604452         3.1269594233 
H       -2.5788485034        -3.9004664138         0.8643793705 
C       -3.6345430755        -3.9402710669         1.1858757093 
H       -3.9406175338        -4.9986683963         1.2372419849 
O       -3.8371481131        -3.2703524598         2.4320779845 
H       -4.2425156053        -3.4298362211         0.4265716418 
H       -3.4212934882        -3.8348611445         3.1269594233 
H       -0.7775497499        -0.2343297221         3.2087601890 
C       -1.2713728085        -1.1024333516         3.6608416710 
O       -2.4739544732        -0.6432329283         4.3183961697 
H       -1.5224760602        -1.8351891628         2.8815526057 
H       -0.5829708103        -1.5653872714         4.3827755090 
H       -2.8643183667        -1.4240830322         4.8107632122 
C       -1.3911252734         2.3098113177        -1.1858757093 
O       -1.1885202358         2.9797299248        -2.4320779845 
H       -2.4468198455         2.3496159707        -0.8643793705 
H       -0.7831527436         2.8202461634        -0.4265716418 
H       -1.0850508151         1.2514139882        -1.2372419849 
H       -1.6043748607         2.4152212401        -3.1269594233 
H       -3.5031922887         0.2481716321        -2.8815526057 
C       -3.7542955404         0.9809274433        -3.6608416710 
O       -2.5517138757         1.4401278666        -4.3183961697 
H       -4.4426975386         0.5179735234        -4.3827755090 
H       -4.2481185990         1.8490310727        -3.2087601890 
H       -2.1613499822         0.6592777627        -4.8107632122 
H       -0.7775497499         3.9323918676         3.2087601890 
C       -1.2713728085         3.0642882381         3.6608416710 
O       -2.4739544732         3.5234886614         4.3183961697 
H       -1.5224760602         2.3315324269         2.8815526057 
H       -0.5829708103         2.6013343183         4.3827755090 
H       -2.8643183667         2.7426385575         4.8107632122 
H       -2.5788485034         4.4329767656         0.8643793705 
C       -3.6345430755         4.3931721125         1.1858757093 
H       -3.9406175338         3.3347747831         1.2372419849 
O       -3.8371481131         5.0630907196         2.4320779845 
H       -4.2425156053         4.9036069583         0.4265716418 
H       -3.4212934882         4.4985820349         3.1269594233 
C        3.6345430755        -1.8569102720        -1.1858757093 
O        3.8371481131        -1.1869916649        -2.4320779845 
H        2.5788485034        -1.8171056190        -0.8643793705 
H        4.2425156053        -1.3464754263        -0.4265716418 
H        3.9406175338        -2.9153076015        -1.2372419849 
H        3.4212934882        -1.7515003496        -3.1269594233 
H        0.7775497499        -2.3176905170        -3.2087601890 
C        1.2713728085        -3.1857941464        -3.6608416710 
O        2.4739544732        -2.7265937231        -4.3183961697 
H        1.5224760602        -3.9185499576        -2.8815526057 
H        0.5829708103        -3.6487480663        -4.3827755090 
H        2.8643183667        -3.5074438270        -4.8107632122 
C        1.3911252734        -3.9402710669         1.1858757093 
H        1.0850508151        -4.9986683963         1.2372419849 
O        1.1885202358        -3.2703524598         2.4320779845 
H        2.4468198455        -3.9004664138         0.8643793705 
H        0.7831527436        -3.4298362211         0.4265716418 
H        1.6043748607        -3.8348611445         3.1269594233 
H        3.5031922887        -1.8351891628         2.8815526057 
C        3.7542955404        -1.1024333516         3.6608416710 
O        2.5517138757        -0.6432329283         4.3183961697 
H        4.4426975386        -1.5653872714         4.3827755090 
H        4.2481185990        -0.2343297221         3.2087601890 
H        2.1613499822        -1.4240830322         4.8107632122 
C        3.6345430755         2.3098113177        -1.1858757093 
O        3.8371481131         2.9797299248        -2.4320779845 
H        2.5788485034         2.3496159707        -0.8643793705 
H        4.2425156053         2.8202461634        -0.4265716418 
H        3.9406175338         1.2514139882        -1.2372419849 
H        3.4212934882         2.4152212401        -3.1269594233 
H        0.7775497499         1.8490310727        -3.2087601890 
C        1.2713728085         0.9809274433        -3.6608416710 
O        2.4739544732         1.4401278666        -4.3183961697 
H        1.5224760602         0.2481716321        -2.8815526057 
H        0.5829708103         0.5179735234        -4.3827755090 
H        2.8643183667         0.6592777627        -4.8107632122 
