         126

C        1.0191254802         4.0024060486         1.4763288038 
H       -0.0588060686         3.9992495402         1.6959596398 
O        1.8064522672         4.0361388316         2.6917358313 
H        1.2810204464         4.8944477289         0.8939065935 
H        1.2793169626         3.1153338447         0.8794040287 
H        1.6111977588         3.1946311795         3.2076201126 
H        1.2810204464         0.3482662390         0.8939065935 
C        1.0191254802        -0.5437754413         1.4763288038 
H       -0.0588060686        -0.5469319497         1.6959596398 
O        1.8064522672        -0.5100426583         2.6917358313 
H        1.2793169626        -1.4308476452         0.8794040287 
H        1.6111977588        -1.3515503104         3.2076201126 
C        4.3753613888         2.0049306997         1.7922774567 
O        4.3703973847         3.4240460161         1.6121075213 
H        5.3734003592         1.6369761497         1.5250277852 
H        4.1879066922         1.7198700333         2.8394318592 
H        3.6441427484         1.5070629304         1.1327865902 
H        3.5368828677         3.7581710430         2.0176069307 
C       -1.0191254802        -2.8168661863        -1.4763288038 
H       -1.2810204464        -1.9248245060        -0.8939065935 
H        0.0588060686        -2.8200226947        -1.6959596398 
H       -1.2793169626        -3.7039383902        -0.8794040287 
O       -1.8064522672        -2.7831334033        -2.6917358313 
H       -1.6111977588        -3.6246410554        -3.2076201126 
H       -3.5368828677        -3.0611011918        -2.0176069307 
O       -4.3703973847        -3.3952262187        -1.6121075213 
C       -4.3753613888        -4.8143415352        -1.7922774567 
H       -3.6441427484        -5.3122093044        -1.1327865902 
H       -4.1879066922        -5.0994022016        -2.8394318592 
H       -5.3734003592        -5.1822960851        -1.5250277852 
C       -4.3753613888        -0.2681600453        -1.7922774567 
O       -4.3703973847         1.1509552712        -1.6121075213 
H       -3.6441427484        -0.7660278145        -1.1327865902 
H       -4.1879066922        -0.5532207117        -2.8394318592 
H       -5.3734003592        -0.6361145952        -1.5250277852 
H       -3.5368828677         1.4850802981        -2.0176069307 
O        1.3359205492        -2.7831334033         4.0512495687 
C        2.1232473361        -2.8168661863         5.2666565963 
H        1.5311750576        -3.6246410554         3.5353652875 
H        1.8613523700        -1.9248245060         5.8490788065 
H        3.2011788849        -2.8200226947         5.0470257602 
H        1.8630558538        -3.7039383902         5.8635813714 
H       -3.1709970292        -0.7880104469         2.0176069307 
O       -2.3374825122        -1.1221354738         1.6121075213 
C       -2.3325185081        -2.5412507902         1.7922774567 
H       -1.3344795377        -2.9092053402         1.5250277852 
H       -2.5199732047        -2.8263114566         2.8394318592 
H       -3.0637371485        -3.0391185595         1.1327865902 
C       -1.2329885724        -0.2681600453         4.9507079433 
O       -1.2280245683         1.1509552712         5.1308778787 
H       -0.5017699320        -0.7660278145         5.6101988098 
H       -1.0455338759        -0.5532207117         3.9035535408 
H       -2.2310275428        -0.6361145952         5.2179576148 
H       -0.3945100513         1.4850802981         4.7253784694 
C       -1.0191254802         1.7293153036        -1.4763288038 
H       -1.2810204464         2.6213569839        -0.8939065935 
H        0.0588060686         1.7261587952        -1.6959596398 
H       -1.2793169626         0.8422430997        -0.8794040287 
O       -1.8064522672         1.7630480866        -2.6917358313 
H       -1.6111977588         0.9215404345        -3.2076201126 
O        1.3359205492         1.7630480866         4.0512495687 
C        2.1232473361         1.7293153036         5.2666565963 
H        1.5311750576         0.9215404345         3.5353652875 
H        1.8613523700         2.6213569839         5.8490788065 
H        3.2011788849         1.7261587952         5.0470257602 
H        1.8630558538         0.8422430997         5.8635813714 
O       -2.3374825122         3.4240460161         1.6121075213 
H       -3.1709970292         3.7581710430         2.0176069307 
C       -2.3325185081         2.0049306997         1.7922774567 
H       -1.3344795377         1.6369761497         1.5250277852 
H       -2.5199732047         1.7198700333         2.8394318592 
H       -3.0637371485         1.5070629304         1.1327865902 
O       -1.3359205492        -0.5100426583        -4.0512495687 
H       -1.5311750576        -1.3515503104        -3.5353652875 
C       -2.1232473361        -0.5437754413        -5.2666565963 
H       -3.2011788849        -0.5469319497        -5.0470257602 
H       -1.8613523700         0.3482662390        -5.8490788065 
H       -1.8630558538        -1.4308476452        -5.8635813714 
H        3.1709970292        -3.0611011918        -2.0176069307 
O        2.3374825122        -3.3952262187        -1.6121075213 
C        2.3325185081        -4.8143415352        -1.7922774567 
H        3.0637371485        -5.3122093044        -1.1327865902 
H        2.5199732047        -5.0994022016        -2.8394318592 
H        1.3344795377        -5.1822960851        -1.5250277852 
H        0.3945100513        -0.7880104469        -4.7253784694 
O        1.2280245683        -1.1221354738        -5.1308778787 
C        1.2329885724        -2.5412507902        -4.9507079433 
H        2.2310275428        -2.9092053402        -5.2179576148 
H        1.0455338759        -2.8263114566        -3.9035535408 
H        0.5017699320        -3.0391185595        -5.6101988098 
C        2.3325185081        -0.2681600453        -1.7922774567 
O        2.3374825122         1.1509552712        -1.6121075213 
H        3.0637371485        -0.7660278145        -1.1327865902 
H        2.5199732047        -0.5532207117        -2.8394318592 
H        1.3344795377        -0.6361145952        -1.5250277852 
H        3.1709970292         1.4850802981        -2.0176069307 
H        1.2810204464        -4.1979152509         0.8939065935 
C        1.0191254802        -5.0899569312         1.4763288038 
H       -0.0588060686        -5.0931134396         1.6959596398 
O        1.8064522672        -5.0562241482         2.6917358313 
H        1.2793169626        -5.9770291351         0.8794040287 
H        1.6111977588        -5.8977318003         3.2076201126 
H        3.5368828677        -0.7880104469         2.0176069307 
O        4.3703973847        -1.1221354738         1.6121075213 
C        4.3753613888        -2.5412507902         1.7922774567 
H        5.3734003592        -2.9092053402         1.5250277852 
H        4.1879066922        -2.8263114566         2.8394318592 
H        3.6441427484        -3.0391185595         1.1327865902 
H       -1.5311750576         3.1946311795        -3.5353652875 
O       -1.3359205492         4.0361388316        -4.0512495687 
C       -2.1232473361         4.0024060486        -5.2666565963 
H       -3.2011788849         3.9992495402        -5.0470257602 
H       -1.8613523700         4.8944477289        -5.8490788065 
H       -1.8630558538         3.1153338447        -5.8635813714 
C        2.3325185081         4.2780214446        -1.7922774567 
O        2.3374825122         5.6971367611        -1.6121075213 
H        3.0637371485         3.7801536754        -1.1327865902 
H        2.5199732047         3.9929607782        -2.8394318592 
H        1.3344795377         3.9100668947        -1.5250277852 
H        3.1709970292         6.0312617880        -2.0176069307 
H        1.0455338759         1.7198700333        -3.9035535408 
C        1.2329885724         2.0049306997        -4.9507079433 
O        1.2280245683         3.4240460161        -5.1308778787 
H        2.2310275428         1.6369761497        -5.2179576148 
H        0.5017699320         1.5070629304        -5.6101988098 
H        0.3945100513         3.7581710430        -4.7253784694 
