         126

H        2.4285064076         3.9564819967         0.9180734287 
C        3.4324638265         4.2986950042         1.2052871968 
H        3.3663709450         5.3125224987         1.6176474391 
O        4.3023001903         4.3221814183         0.0514014517 
H        3.8453080953         3.6362107121         1.9779085327 
H        4.8273626858         3.4563982265         0.0202419100 
H        3.3663709450         0.9479548545         1.6176474391 
C        3.4324638265        -0.0658726400         1.2052871968 
O        4.3023001903        -0.0423862259         0.0514014517 
H        3.8453080953        -0.7283569321         1.9779085327 
H        2.4285064076        -0.4080856475         0.9180734287 
H        4.8273626858        -0.9081694177         0.0202419100 
H        0.9419054391         2.1146289689         1.8462692159 
O        0.6213860654         1.9702398694         2.7622355683 
C        1.3408765602         2.8388838045         3.6490299162 
H        0.8978455954         2.7263712139         4.6460505496 
H        1.2486357376         3.8969637403         3.3519165937 
H        2.4098247637         2.5710159497         3.7062485797 
C       -3.4324638265        -2.2481564621        -1.2052871968 
H       -3.3663709450        -1.2343289676        -1.6176474391 
H       -2.4285064076        -2.5903694696        -0.9180734287 
O       -4.3023001903        -2.2246700480        -0.0514014517 
H       -3.8453080953        -2.9106407542        -1.9779085327 
H       -4.8273626858        -3.0904532398        -0.0202419100 
H       -0.9419054391        -0.0676548532        -1.8462692159 
O       -0.6213860654        -0.2120439527        -2.7622355683 
C       -1.3408765602         0.6565999824        -3.6490299162 
H       -1.2486357376         1.7146799182        -3.3519165937 
H       -2.4098247637         0.3887321276        -3.7062485797 
H       -0.8978455954         0.5440873918        -4.6460505496 
H       -1.2486357376        -2.6498877260        -3.3519165937 
C       -1.3408765602        -3.7079676618        -3.6490299162 
O       -0.6213860654        -4.5766115969        -2.7622355683 
H       -2.4098247637        -3.9758355166        -3.7062485797 
H       -0.8978455954        -3.8204802524        -4.6460505496 
H       -0.9419054391        -4.4322224974        -1.8462692159 
C       -1.5853727408        -0.0658726400         1.2052871968 
H       -1.6514656223         0.9479548545         1.6176474391 
O       -0.7155363770        -0.0423862259         0.0514014517 
H       -1.1725284720        -0.7283569321         1.9779085327 
H       -2.5893301597        -0.4080856475         0.9180734287 
H       -0.1904738815        -0.9081694177         0.0202419100 
H       -1.6514656223        -3.4166127897         1.6176474391 
C       -1.5853727408        -4.4304402842         1.2052871968 
O       -0.7155363770        -4.4069538701         0.0514014517 
H       -1.1725284720        -5.0929245763         1.9779085327 
H       -2.5893301597        -4.7726532917         0.9180734287 
H       -0.1904738815        -5.2727370619         0.0202419100 
H       -4.0759311282        -2.2499386753         1.8462692159 
O       -4.3964505019        -2.3943277748         2.7622355683 
C       -3.6769600071        -1.5256838397         3.6490299162 
H       -4.1199909719        -1.6381964303         4.6460505496 
H       -3.7692008297        -0.4676039039         3.3519165937 
H       -2.6080118036        -1.7935516945         3.7062485797 
C       -3.4324638265         2.1164111821        -1.2052871968 
H       -3.3663709450         3.1302386766        -1.6176474391 
H       -2.4285064076         1.7741981746        -0.9180734287 
O       -4.3023001903         2.1398975962        -0.0514014517 
H       -3.8453080953         1.4539268900        -1.9779085327 
H       -4.8273626858         1.2741144044        -0.0202419100 
H       -0.9419054391         4.2969127910        -1.8462692159 
O       -0.6213860654         4.1525236915        -2.7622355683 
C       -1.3408765602         5.0211676266        -3.6490299162 
H       -1.2486357376         6.0792475624        -3.3519165937 
H       -2.4098247637         4.7532997718        -3.7062485797 
H       -0.8978455954         4.9086550360        -4.6460505496 
C       -1.5853727408         4.2986950042         1.2052871968 
H       -1.6514656223         5.3125224987         1.6176474391 
O       -0.7155363770         4.3221814183         0.0514014517 
H       -1.1725284720         3.6362107121         1.9779085327 
H       -2.5893301597         3.9564819967         0.9180734287 
H       -0.1904738815         3.4563982265         0.0202419100 
H       -4.0759311282         2.1146289689         1.8462692159 
O       -4.3964505019         1.9702398694         2.7622355683 
C       -3.6769600071         2.8388838045         3.6490299162 
H       -4.1199909719         2.7263712139         4.6460505496 
H       -3.7692008297         3.8969637403         3.3519165937 
H       -2.6080118036         2.5710159497         3.7062485797 
H       -0.8146299230         0.5440873918         4.4880700640 
C       -1.2576608878         0.6565999824         5.4850906974 
O       -0.5381703931        -0.2120439527         6.3718850453 
H       -1.1654200652         1.7146799182         5.7822040199 
H       -2.3266090914         0.3887321276         5.4278720339 
H       -0.8586897667        -0.0676548532         7.2878513977 
C        1.5853727408        -2.2481564621        -1.2052871968 
H        1.6514656223        -1.2343289676        -1.6176474391 
H        2.5893301597        -2.5903694696        -0.9180734287 
O        0.7155363770        -2.2246700480        -0.0514014517 
H        1.1725284720        -2.9106407542        -1.9779085327 
H        0.1904738815        -3.0904532398        -0.0202419100 
H        4.0759311282        -0.0676548532        -1.8462692159 
O        4.3964505019        -0.2120439527        -2.7622355683 
C        3.6769600071         0.6565999824        -3.6490299162 
H        3.7692008297         1.7146799182        -3.3519165937 
H        2.6080118036         0.3887321276        -3.7062485797 
H        4.1199909719         0.5440873918        -4.6460505496 
H        0.8146299230        -1.6381964303        -4.4880700640 
C        1.2576608878        -1.5256838397        -5.4850906974 
H        1.1654200652        -0.4676039039        -5.7822040199 
H        2.3266090914        -1.7935516945        -5.4278720339 
O        0.5381703931        -2.3943277748        -6.3718850453 
H        0.8586897667        -2.2499386753        -7.2878513977 
H        3.3663709450        -3.4166127897         1.6176474391 
C        3.4324638265        -4.4304402842         1.2052871968 
O        4.3023001903        -4.4069538701         0.0514014517 
H        3.8453080953        -5.0929245763         1.9779085327 
H        2.4285064076        -4.7726532917         0.9180734287 
H        4.8273626858        -5.2727370619         0.0202419100 
H        0.9419054391        -2.2499386753         1.8462692159 
O        0.6213860654        -2.3943277748         2.7622355683 
C        1.3408765602        -1.5256838397         3.6490299162 
H        0.8978455954        -1.6381964303         4.6460505496 
H        1.2486357376        -0.4676039039         3.3519165937 
H        2.4098247637        -1.7935516945         3.7062485797 
C        1.5853727408         2.1164111821        -1.2052871968 
H        1.6514656223         3.1302386766        -1.6176474391 
H        2.5893301597         1.7741981746        -0.9180734287 
O        0.7155363770         2.1398975962        -0.0514014517 
H        1.1725284720         1.4539268900        -1.9779085327 
H        0.1904738815         1.2741144044        -0.0202419100 
H       -5.2083104488        -0.9081694177         0.0202419100 
O       -5.7333729443        -0.0423862259         0.0514014517 
C       -6.6032093081        -0.0658726400         1.2052871968 
H       -6.6693021896         0.9479548545         1.6176474391 
H       -6.1903650393        -0.7283569321         1.9779085327 
H       -7.6071667270        -0.4080856475         0.9180734287 
