         108

O        1.0801779386         3.3773480368         1.2246819163 
H        1.3230679797         2.4719768550         0.8479658350 
C       -0.0960729305         3.2332667318         2.0264040630 
H       -0.9925150292         3.1407090970         1.3901922584 
H       -0.0272950527         2.3579591130         2.6915347842 
H       -0.2004472852         4.1288912932         2.6501251644 
O        1.8431967868         1.0801779386         0.2044365889 
H        2.7485679686         1.3230679797        -0.1722794924 
C        1.9872780918        -0.0960729305         1.0061587356 
H        1.0916535304        -0.2004472852         1.6298798370 
H        2.0798357266        -0.9925150292         0.3699469311 
H        2.8625857106        -0.0272950527         1.6712894569 
H        2.7485679686         1.3230679797         3.9087018170 
O        1.8431967868         1.0801779386         4.2854178983 
C        1.9872780918        -0.0960729305         5.0871400450 
H        1.0916535304        -0.2004472852         5.7108611464 
H        2.0798357266        -0.9925150292         4.4509282405 
H        2.8625857106        -0.0272950527         5.7522707663 
H        2.4719768550         3.8974768439         1.8682111623 
O        3.3773480368         4.1403668850         2.2449272436 
C        3.2332667318         5.3166177541         3.0466493903 
H        2.3579591130         5.2478398763         3.7117801116 
H        4.1288912932         5.4209921088         3.6703704917 
H        3.1407090970         6.2130598528         2.4104375858 
O       -4.1403668850        -1.8431967868        -0.8158087384 
C       -5.3166177541        -1.9872780918        -0.0140865917 
H       -3.8974768439        -2.7485679686        -1.1925248197 
H       -5.2478398763        -2.8625857106         0.6510441295 
H       -5.4209921088        -1.0916535304         0.6096345097 
H       -6.2130598528        -2.0798357266        -0.6502983963 
O       -1.0801779386        -3.3773480368        -2.8562993931 
C        0.0960729305        -3.2332667318        -2.0545772464 
H       -1.3230679797        -2.4719768550        -3.2330154744 
H        0.9925150292        -3.1407090970        -2.6907890510 
H        0.2004472852        -4.1288912932        -1.4308561450 
H        0.0272950527        -2.3579591130        -1.3894465252 
O       -1.8431967868        -1.0801779386        -3.8765447205 
C       -1.9872780918         0.0960729305        -3.0748225738 
H       -2.7485679686        -1.3230679797        -4.2532608018 
H       -2.8625857106         0.0272950527        -2.4096918525 
H       -1.0916535304         0.2004472852        -2.4511014724 
H       -2.0798357266         0.9925150292        -3.7110343783 
H       -2.4719768550        -3.8974768439        -2.2127701471 
O       -3.3773480368        -4.1403668850        -1.8360540658 
C       -3.2332667318        -5.3166177541        -1.0343319191 
H       -4.1288912932        -5.4209921088        -0.4106108177 
H       -3.1407090970        -6.2130598528        -1.6705437236 
H       -2.3579591130        -5.2478398763        -0.3692011978 
H       -2.7485679686        -1.3230679797        -0.1722794924 
O       -1.8431967868        -1.0801779386         0.2044365889 
C       -1.9872780918         0.0960729305         1.0061587356 
H       -2.8625857106         0.0272950527         1.6712894569 
H       -1.0916535304         0.2004472852         1.6298798370 
H       -2.0798357266         0.9925150292         0.3699469311 
O       -1.0801779386        -3.3773480368         1.2246819163 
C        0.0960729305        -3.2332667318         2.0264040630 
H       -1.3230679797        -2.4719768550         0.8479658350 
H        0.9925150292        -3.1407090970         1.3901922584 
H        0.2004472852        -4.1288912932         2.6501251644 
H        0.0272950527        -2.3579591130         2.6915347842 
H       -2.4719768550        -3.8974768439         1.8682111623 
O       -3.3773480368        -4.1403668850         2.2449272436 
C       -3.2332667318        -5.3166177541         3.0466493903 
H       -4.1288912932        -5.4209921088         3.6703704917 
H       -3.1407090970        -6.2130598528         2.4104375858 
H       -2.3579591130        -5.2478398763         3.7117801116 
H       -2.7485679686        -1.3230679797         3.9087018170 
O       -1.8431967868        -1.0801779386         4.2854178983 
C       -1.9872780918         0.0960729305         5.0871400450 
H       -2.8625857106         0.0272950527         5.7522707663 
H       -1.0916535304         0.2004472852         5.7108611464 
H       -2.0798357266         0.9925150292         4.4509282405 
C       -0.0960729305         3.2332667318        -2.0545772464 
O        1.0801779386         3.3773480368        -2.8562993931 
H       -0.9925150292         3.1407090970        -2.6907890510 
H       -0.0272950527         2.3579591130        -1.3894465252 
H       -0.2004472852         4.1288912932        -1.4308561450 
H        1.3230679797         2.4719768550        -3.2330154744 
H       -4.2280297944         2.0798357266        -0.6502983963 
C       -5.1244718931         1.9872780918        -0.0140865917 
H       -5.0200975384         1.0916535304         0.6096345097 
H       -5.1932497709         2.8625857106         0.6510441295 
O       -6.3007227622         1.8431967868        -0.8158087384 
H       -6.5436128033         2.7485679686        -1.1925248197 
C        1.9872780918        -0.0960729305        -3.0748225738 
O        1.8431967868         1.0801779386        -3.8765447205 
H        1.0916535304        -0.2004472852        -2.4511014724 
H        2.0798357266        -0.9925150292        -3.7110343783 
H        2.8625857106        -0.0272950527        -2.4096918525 
H        2.7485679686         1.3230679797        -4.2532608018 
H        4.2280297944        -2.0798357266        -0.6502983963 
C        5.1244718931        -1.9872780918        -0.0140865917 
H        5.1932497709        -2.8625857106         0.6510441295 
H        5.0200975384        -1.0916535304         0.6096345097 
O        6.3007227622        -1.8431967868        -0.8158087384 
H        6.5436128033        -2.7485679686        -1.1925248197 
O        4.1403668850         1.8431967868        -0.8158087384 
H        3.8974768439         2.7485679686        -1.1925248197 
C        5.3166177541         1.9872780918        -0.0140865917 
H        5.4209921088         1.0916535304         0.6096345097 
H        5.2478398763         2.8625857106         0.6510441295 
H        6.2130598528         2.0798357266        -0.6502983963 
H        2.4719768550         3.8974768439        -2.2127701471 
O        3.3773480368         4.1403668850        -1.8360540658 
C        3.2332667318         5.3166177541        -1.0343319191 
H        2.3579591130         5.2478398763        -0.3692011978 
H        4.1288912932         5.4209921088        -0.4106108177 
H        3.1407090970         6.2130598528        -1.6705437236 
