         120

C        2.5284978129         0.8782938277         2.3487033524 
H        1.8200057502         0.8829309385         1.5043045729 
H        2.3676222709         1.7891636117         2.9375676811 
H        2.3305651228         0.0003110545         2.9821385598 
O        3.8826445581         0.8957140310         1.8924553513 
H        4.0278418991         0.1163633229         1.2994879823 
C        2.6647808921         4.3149848773         0.4932861531 
O        1.3106341470         4.2975646741         0.0370381521 
H        3.3732729548         4.3103477666        -0.3511126264 
H        2.8256564342         3.4041150934         1.0821504818 
H        2.8627135823         5.1929676505         1.1267213605 
H        1.1654368059         5.0769153821        -0.5559292169 
C       -2.5284978129        -0.8782938277        -1.3621310461 
H       -1.8200057502        -0.8829309385        -2.2065298256 
O       -3.8826445581        -0.8957140310        -1.8183790472 
H       -2.3676222709        -1.7891636117        -0.7732667174 
H       -2.3305651228        -0.0003110545        -0.7286958387 
H       -4.0278418991        -0.1163633229        -2.4113464162 
H       -2.8256564342        -3.4041150934        -2.6286839167 
C       -2.6647808921        -4.3149848773        -3.2175482454 
H       -3.3732729548        -4.3103477666        -4.0619470249 
H       -2.8627135823        -5.1929676505        -2.5841130380 
O       -1.3106341470        -4.2975646741        -3.6737962464 
H       -1.1654368059        -5.0769153821        -4.2667636154 
H       -1.1654368059        -5.0769153821        -0.5559292169 
O       -1.3106341470        -4.2975646741         0.0370381521 
C       -2.6647808921        -4.3149848773         0.4932861531 
H       -3.3732729548        -4.3103477666        -0.3511126264 
H       -2.8256564342        -3.4041150934         1.0821504818 
H       -2.8627135823        -5.1929676505         1.1267213605 
C       -2.5284978129        -0.8782938277         2.3487033524 
H       -1.8200057502        -0.8829309385         1.5043045729 
O       -3.8826445581        -0.8957140310         1.8924553513 
H       -2.3676222709        -1.7891636117         2.9375676811 
H       -2.3305651228        -0.0003110545         2.9821385598 
H       -4.0278418991        -0.1163633229         1.2994879823 
C       -0.8782938277         2.5284978129        -1.3621310461 
H       -0.8829309385         1.8200057502        -2.2065298256 
H       -1.7891636117         2.3676222709        -0.7732667174 
H       -0.0003110545         2.3305651228        -0.7286958387 
O       -0.8957140310         3.8826445581        -1.8183790472 
H       -0.1163633229         4.0278418991        -2.4113464162 
H       -3.4041150934         2.8256564342        -2.6286839167 
C       -4.3149848773         2.6647808921        -3.2175482454 
O       -4.2975646741         1.3106341470        -3.6737962464 
H       -4.3103477666         3.3732729548        -4.0619470249 
H       -5.1929676505         2.8627135823        -2.5841130380 
H       -5.0769153821         1.1654368059        -4.2667636154 
H       -5.0769153821         1.1654368059        -0.5559292169 
O       -4.2975646741         1.3106341470         0.0370381521 
C       -4.3149848773         2.6647808921         0.4932861531 
H       -4.3103477666         3.3732729548        -0.3511126264 
H       -3.4041150934         2.8256564342         1.0821504818 
H       -5.1929676505         2.8627135823         1.1267213605 
C       -0.8782938277         2.5284978129         2.3487033524 
H       -0.8829309385         1.8200057502         1.5043045729 
H       -1.7891636117         2.3676222709         2.9375676811 
H       -0.0003110545         2.3305651228         2.9821385598 
O       -0.8957140310         3.8826445581         1.8924553513 
H       -0.1163633229         4.0278418991         1.2994879823 
C        0.8782938277        -2.5284978129        -1.3621310461 
H        0.8829309385        -1.8200057502        -2.2065298256 
O        0.8957140310        -3.8826445581        -1.8183790472 
H        1.7891636117        -2.3676222709        -0.7732667174 
H        0.0003110545        -2.3305651228        -0.7286958387 
H        0.1163633229        -4.0278418991        -2.4113464162 
H        3.4041150934        -2.8256564342        -2.6286839167 
C        4.3149848773        -2.6647808921        -3.2175482454 
H        4.3103477666        -3.3732729548        -4.0619470249 
H        5.1929676505        -2.8627135823        -2.5841130380 
O        4.2975646741        -1.3106341470        -3.6737962464 
H        5.0769153821        -1.1654368059        -4.2667636154 
H        5.0769153821        -1.1654368059        -0.5559292169 
O        4.2975646741        -1.3106341470         0.0370381521 
C        4.3149848773        -2.6647808921         0.4932861531 
H        4.3103477666        -3.3732729548        -0.3511126264 
H        3.4041150934        -2.8256564342         1.0821504818 
H        5.1929676505        -2.8627135823         1.1267213605 
C        0.8782938277        -2.5284978129         2.3487033524 
H        0.8829309385        -1.8200057502         1.5043045729 
O        0.8957140310        -3.8826445581         1.8924553513 
H        1.7891636117        -2.3676222709         2.9375676811 
H        0.0003110545        -2.3305651228         2.9821385598 
H        0.1163633229        -4.0278418991         1.2994879823 
C        2.5284978129         0.8782938277        -1.3621310461 
H        1.8200057502         0.8829309385        -2.2065298256 
H        2.3676222709         1.7891636117        -0.7732667174 
H        2.3305651228         0.0003110545        -0.7286958387 
O        3.8826445581         0.8957140310        -1.8183790472 
H        4.0278418991         0.1163633229        -2.4113464162 
H        2.8256564342         3.4041150934        -2.6286839167 
C        2.6647808921         4.3149848773        -3.2175482454 
O        1.3106341470         4.2975646741        -3.6737962464 
H        3.3732729548         4.3103477666        -4.0619470249 
H        2.8627135823         5.1929676505        -2.5841130380 
H        1.1654368059         5.0769153821        -4.2667636154 
H       -2.3305651228        -0.0003110545        -4.4395302372 
C       -2.5284978129        -0.8782938277        -5.0729654446 
H       -1.8200057502        -0.8829309385        -5.9173642241 
O       -3.8826445581        -0.8957140310        -5.5292134457 
H       -2.3676222709        -1.7891636117        -4.4841011159 
H       -4.0278418991        -0.1163633229        -6.1221808147 
H       -0.0003110545         2.3305651228        -4.4395302372 
C       -0.8782938277         2.5284978129        -5.0729654446 
H       -0.8829309385         1.8200057502        -5.9173642241 
H       -1.7891636117         2.3676222709        -4.4841011159 
O       -0.8957140310         3.8826445581        -5.5292134457 
H       -0.1163633229         4.0278418991        -6.1221808147 
H        0.0003110545        -2.3305651228        -4.4395302372 
C        0.8782938277        -2.5284978129        -5.0729654446 
H        0.8829309385        -1.8200057502        -5.9173642241 
O        0.8957140310        -3.8826445581        -5.5292134457 
H        1.7891636117        -2.3676222709        -4.4841011159 
H        0.1163633229        -4.0278418991        -6.1221808147 
H        2.3305651228         0.0003110545        -4.4395302372 
C        2.5284978129         0.8782938277        -5.0729654446 
H        1.8200057502         0.8829309385        -5.9173642241 
H        2.3676222709         1.7891636117        -4.4841011159 
O        3.8826445581         0.8957140310        -5.5292134457 
H        4.0278418991         0.1163633229        -6.1221808147 
