          96

C        2.1248897386         0.9201323093         1.3761195559 
H        1.8550757936         1.9570132242         1.1208216773 
H        1.2965107573         0.2667158615         1.0715015109 
O        3.2913653303         0.4937323958         0.6620821185 
H        2.2680925815         0.8367139580         2.4652638055 
H        4.0683814105         1.0776481080         0.9243448073 
H        2.7698183151         4.2011969386         0.4254198148 
C        2.9130211581         4.1177785873        -0.6637244348 
O        1.7465455663         4.5441785009        -1.3777618722 
H        3.1828351031         3.0808976724        -0.9190223134 
H        3.7414001394         4.7711950351        -0.9683424798 
H        0.9695294862         3.9602627886        -1.1154991834 
H        0.9695294862         3.9602627886         2.9641887980 
O        1.7465455663         4.5441785009         2.7019261092 
C        2.9130211581         4.1177785873         3.4159635466 
H        2.7698183151         4.2011969386         4.5051077962 
H        3.1828351031         3.0808976724         3.1606656680 
H        3.7414001394         4.7711950351         3.1113455016 
C       -2.1248897386        -0.9201323093        -2.7035684255 
O       -3.2913653303        -0.4937323958        -3.4176058629 
H       -1.8550757936        -1.9570132242        -2.9588663041 
H       -1.2965107573        -0.2667158615        -3.0081864705 
H       -2.2680925815        -0.8367139580        -1.6144241759 
H       -4.0683814105        -1.0776481080        -3.1553431741 
C       -2.9130211581        -4.1177785873        -0.6637244348 
H       -2.7698183151        -4.2011969386         0.4254198148 
H       -3.1828351031        -3.0808976724        -0.9190223134 
H       -3.7414001394        -4.7711950351        -0.9683424798 
O       -1.7465455663        -4.5441785009        -1.3777618722 
H       -0.9695294862        -3.9602627886        -1.1154991834 
C       -2.1248897386        -0.9201323093         1.3761195559 
O       -3.2913653303        -0.4937323958         0.6620821185 
H       -1.8550757936        -1.9570132242         1.1208216773 
H       -1.2965107573        -0.2667158615         1.0715015109 
H       -2.2680925815        -0.8367139580         2.4652638055 
H       -4.0683814105        -1.0776481080         0.9243448073 
H       -0.9695294862        -3.9602627886         2.9641887980 
O       -1.7465455663        -4.5441785009         2.7019261092 
C       -2.9130211581        -4.1177785873         3.4159635466 
H       -2.7698183151        -4.2011969386         4.5051077962 
H       -3.1828351031        -3.0808976724         3.1606656680 
H       -3.7414001394        -4.7711950351         3.1113455016 
C       -0.9201323093         2.1248897386        -1.3761195559 
H       -0.8367139580         2.2680925815        -2.4652638055 
H       -1.9570132242         1.8550757936        -1.1208216773 
H       -0.2667158615         1.2965107573        -1.0715015109 
O       -0.4937323958         3.2913653303        -0.6620821185 
H       -1.0776481080         4.0683814105        -0.9243448073 
H       -4.2011969386         2.7698183151        -0.4254198148 
C       -4.1177785873         2.9130211581         0.6637244348 
O       -4.5441785009         1.7465455663         1.3777618722 
H       -3.0808976724         3.1828351031         0.9190223134 
H       -4.7711950351         3.7414001394         0.9683424798 
H       -3.9602627886         0.9695294862         1.1154991834 
H       -3.9602627886         0.9695294862        -2.9641887980 
O       -4.5441785009         1.7465455663        -2.7019261092 
C       -4.1177785873         2.9130211581        -3.4159635466 
H       -4.2011969386         2.7698183151        -4.5051077962 
H       -3.0808976724         3.1828351031        -3.1606656680 
H       -4.7711950351         3.7414001394        -3.1113455016 
C       -0.9201323093         2.1248897386         2.7035684255 
H       -0.8367139580         2.2680925815         1.6144241759 
H       -1.9570132242         1.8550757936         2.9588663041 
H       -0.2667158615         1.2965107573         3.0081864705 
O       -0.4937323958         3.2913653303         3.4176058629 
H       -1.0776481080         4.0683814105         3.1553431741 
C        0.9201323093        -2.1248897386        -1.3761195559 
H        0.8367139580        -2.2680925815        -2.4652638055 
O        0.4937323958        -3.2913653303        -0.6620821185 
H        1.9570132242        -1.8550757936        -1.1208216773 
H        0.2667158615        -1.2965107573        -1.0715015109 
H        1.0776481080        -4.0683814105        -0.9243448073 
H        4.2011969386        -2.7698183151        -0.4254198148 
C        4.1177785873        -2.9130211581         0.6637244348 
H        3.0808976724        -3.1828351031         0.9190223134 
H        4.7711950351        -3.7414001394         0.9683424798 
O        4.5441785009        -1.7465455663         1.3777618722 
H        3.9602627886        -0.9695294862         1.1154991834 
H        3.9602627886        -0.9695294862        -2.9641887980 
O        4.5441785009        -1.7465455663        -2.7019261092 
C        4.1177785873        -2.9130211581        -3.4159635466 
H        4.2011969386        -2.7698183151        -4.5051077962 
H        3.0808976724        -3.1828351031        -3.1606656680 
H        4.7711950351        -3.7414001394        -3.1113455016 
C        0.9201323093        -2.1248897386         2.7035684255 
H        0.8367139580        -2.2680925815         1.6144241759 
O        0.4937323958        -3.2913653303         3.4176058629 
H        1.9570132242        -1.8550757936         2.9588663041 
H        0.2667158615        -1.2965107573         3.0081864705 
H        1.0776481080        -4.0683814105         3.1553431741 
C        2.1248897386         0.9201323093        -2.7035684255 
H        1.8550757936         1.9570132242        -2.9588663041 
H        1.2965107573         0.2667158615        -3.0081864705 
O        3.2913653303         0.4937323958        -3.4176058629 
H        2.2680925815         0.8367139580        -1.6144241759 
H        4.0683814105         1.0776481080        -3.1553431741 
