         114

C        4.5188194541         0.0487935226         0.8035405952 
O        5.2646267654        -0.6745510066         1.7856953289 
H        3.8024015453        -0.6037522268         0.2745800403 
H        5.2254571000         0.4500425921         0.0662335235 
H        3.9651478277         0.8936112981         1.2493860236 
H        4.6203692558        -1.1812591494         2.3305166955 
H        1.6845450042         3.2349857661         2.5395833126 
C        1.9594039025         2.3369841315         3.1020428731 
O        3.3487285981         2.4393771826         3.4868713682 
H        1.3234085384         2.2597075296         3.9956697240 
H        1.7938183962         1.4612673228         2.4576208021 
H        3.5899929127         1.6022676070         3.9986498364 
C       -4.5188194541        -2.1045702217        -0.8035405952 
H       -3.9651478277        -1.2597524462        -1.2493860236 
H       -5.2254571000        -1.7033211522        -0.0662335235 
H       -3.8024015453        -2.7571159710        -0.2745800403 
O       -5.2646267654        -2.8279147509        -1.7856953289 
H       -4.6203692558        -3.3346228937        -2.3305166955 
H       -1.6845450042        -3.2251054666        -2.5395833126 
C       -1.9594039025        -4.1231071012        -3.1020428731 
H       -1.7938183962        -4.9988239100        -2.4576208021 
H       -1.3234085384        -4.2003837031        -3.9956697240 
O       -3.3487285981        -4.0207140501        -3.4868713682 
H       -3.5899929127        -4.8578236258        -3.9986498364 
H       -1.7938183962        -0.6920964215        -2.4576208021 
C       -1.9594039025         0.1836203873        -3.1020428731 
H       -1.3234085384         0.1063437854        -3.9956697240 
H       -1.6845450042         1.0816220219        -2.5395833126 
O       -3.3487285981         0.2860134384        -3.4868713682 
H       -3.5899929127        -0.5510961373        -3.9986498364 
C       -1.4205483347        -4.2579339659         0.8035405952 
O       -0.6747410234        -4.9812784951         1.7856953289 
H       -2.1369662435        -4.9104797153         0.2745800403 
H       -0.7139106888        -3.8566848964         0.0662335235 
H       -1.9742199611        -3.4131161904         1.2493860236 
H       -1.3189985330        -5.4879866379         2.3305166955 
H       -2.1369662435        -0.6037522268         0.2745800403 
C       -1.4205483347         0.0487935226         0.8035405952 
O       -0.6747410234        -0.6745510066         1.7856953289 
H       -0.7139106888         0.4500425921         0.0662335235 
H       -1.9742199611         0.8936112981         1.2493860236 
H       -1.3189985330        -1.1812591494         2.3305166955 
H       -4.2548227846        -1.0717417224         2.5395833126 
C       -3.9799638863        -1.9697433570         3.1020428731 
O       -2.5906391907        -1.8673503059         3.4868713682 
H       -4.6159592504        -2.0470199589         3.9956697240 
H       -4.1455493926        -2.8454601657         2.4576208021 
H       -2.3493748761        -2.7044598815         3.9986498364 
H       -2.3120323663        -0.5510961373         4.4058033014 
O       -2.0707680517         0.2860134384         4.9175817696 
C       -0.6814433561         0.1836203873         5.3024102647 
H       -0.5158578498        -0.6920964215         5.9468323356 
H       -0.0454479920         0.1063437854         4.4087834137 
H       -0.4065844578         1.0816220219         5.8648698252 
C       -4.5188194541         2.2021572668        -0.8035405952 
H       -3.9651478277         3.0469750423        -1.2493860236 
H       -5.2254571000         2.6034063363        -0.0662335235 
H       -3.8024015453         1.5496115175        -0.2745800403 
O       -5.2646267654         1.4788127376        -1.7856953289 
H       -4.6203692558         0.9721045948        -2.3305166955 
H       -1.7938183962         3.6146310670        -2.4576208021 
C       -1.9594039025         4.4903478758        -3.1020428731 
H       -1.3234085384         4.4130712739        -3.9956697240 
H       -1.6845450042         5.3883495104        -2.5395833126 
O       -3.3487285981         4.5927409269        -3.4868713682 
H       -3.5899929127         3.7556313512        -3.9986498364 
H       -2.1369662435         3.7029752617         0.2745800403 
C       -1.4205483347         4.3555210111         0.8035405952 
O       -0.6747410234         3.6321764819         1.7856953289 
H       -0.7139106888         4.7567700806         0.0662335235 
H       -1.9742199611         5.2003387866         1.2493860236 
H       -1.3189985330         3.1254683391         2.3305166955 
H       -4.1455493926         1.4612673228         2.4576208021 
C       -3.9799638863         2.3369841315         3.1020428731 
O       -2.5906391907         2.4393771826         3.4868713682 
H       -4.6159592504         2.2597075296         3.9956697240 
H       -4.2548227846         3.2349857661         2.5395833126 
H       -2.3493748761         1.6022676070         3.9986498364 
C        1.4205483347        -2.1045702217        -0.8035405952 
H        1.9742199611        -1.2597524462        -1.2493860236 
H        0.7139106888        -1.7033211522        -0.0662335235 
H        2.1369662435        -2.7571159710        -0.2745800403 
O        0.6747410234        -2.8279147509        -1.7856953289 
H        1.3189985330        -3.3346228937        -2.3305166955 
H        4.1455493926        -0.6920964215        -2.4576208021 
C        3.9799638863         0.1836203873        -3.1020428731 
H        4.6159592504         0.1063437854        -3.9956697240 
H        4.2548227846         1.0816220219        -2.5395833126 
O        2.5906391907         0.2860134384        -3.4868713682 
H        2.3493748761        -0.5510961373        -3.9986498364 
H        0.0454479920        -2.0470199589        -4.4087834137 
C        0.6814433561        -1.9697433570        -5.3024102647 
O        2.0707680517        -1.8673503059        -4.9175817696 
H        0.4065844578        -1.0717417224        -5.8648698252 
H        0.5158578498        -2.8454601657        -5.9468323356 
H        2.3120323663        -2.7044598815        -4.4058033014 
H        1.6845450042        -1.0717417224         2.5395833126 
C        1.9594039025        -1.9697433570         3.1020428731 
O        3.3487285981        -1.8673503059         3.4868713682 
H        1.3234085384        -2.0470199589         3.9956697240 
H        1.7938183962        -2.8454601657         2.4576208021 
H        3.5899929127        -2.7044598815         3.9986498364 
C        1.4205483347         2.2021572668        -0.8035405952 
H        1.9742199611         3.0469750423        -1.2493860236 
H        0.7139106888         2.6034063363        -0.0662335235 
H        2.1369662435         1.5496115175        -0.2745800403 
O        0.6747410234         1.4788127376        -1.7856953289 
H        1.3189985330         0.9721045948        -2.3305166955 
H        0.0454479920         2.2597075296        -4.4087834137 
C        0.6814433561         2.3369841315        -5.3024102647 
O        2.0707680517         2.4393771826        -4.9175817696 
H        0.4065844578         3.2349857661        -5.8648698252 
H        0.5158578498         1.4612673228        -5.9468323356 
H        2.3120323663         1.6022676070        -4.4058033014 
