         120

C        1.4319228365         1.1134566741         3.2969411015 
O        2.3702600909         2.0239917215         2.7035296133 
H        1.7827972570         0.0728724666         3.2127585567 
H        1.2833524927         1.3416536466         4.3619755096 
H        0.4702606767         1.2074052858         2.7731055134 
H        2.9254315213         2.4596206430         3.4311964496 
H        1.2833524927         3.6302180301         0.6809268706 
C        1.4319228365         3.4020210576        -0.3841075374 
O        2.3702600909         4.3125561050        -0.9775190256 
H        1.7827972570         2.3614368502        -0.4682900822 
H        0.4702606767         3.4959696694        -0.9079431256 
H        2.9254315213         4.7481850266        -0.2498521894 
O        3.8202583970         0.8797095297         0.8630052938 
C        4.7585956514        -0.0308255177         1.4564167820 
H        3.2650869666         1.3153384512         1.5906721301 
H        5.7202578112         0.0631230940         0.9325811939 
H        4.9071659953         0.1973714548         2.5214511901 
H        4.4077212310        -1.0714097251         1.3722342373 
C       -1.4319228365        -1.1134566741        -4.0651561764 
O       -2.3702600909        -2.0239917215        -4.6585676646 
H       -1.7827972570        -0.0728724666        -4.1493387212 
H       -1.2833524927        -1.3416536466        -3.0001217683 
H       -0.4702606767        -1.2074052858        -4.5889917645 
H       -2.9254315213        -2.4596206430        -3.9309008283 
C       -1.4319228365        -3.4020210576        -0.3841075374 
H       -1.2833524927        -3.6302180301         0.6809268706 
O       -2.3702600909        -4.3125561050        -0.9775190256 
H       -1.7827972570        -2.3614368502        -0.4682900822 
H       -0.4702606767        -3.4959696694        -0.9079431256 
H       -2.9254315213        -4.7481850266        -0.2498521894 
H       -4.4077212310        -1.2171546584        -2.3088144017 
C       -4.7585956514        -2.2577388658        -2.2246318569 
H       -5.7202578112        -2.3516874776        -2.7484674450 
O       -3.8202583970        -3.1682739132        -2.8180433451 
H       -4.9071659953        -2.4859358384        -1.1595974489 
H       -3.2650869666        -3.6039028348        -2.0903765089 
H       -2.9254315213        -0.1710562595        -0.2498521894 
O       -2.3702600909         0.2645726621        -0.9775190256 
C       -1.4319228365         1.1751077095        -0.3841075374 
H       -1.2833524927         0.9469107370         0.6809268706 
H       -1.7827972570         2.2156919169        -0.4682900822 
H       -0.4702606767         1.0811590977        -0.9079431256 
C       -1.4319228365        -1.1134566741         3.2969411015 
O       -2.3702600909        -2.0239917215         2.7035296133 
H       -1.7827972570        -0.0728724666         3.2127585567 
H       -1.2833524927        -1.3416536466         4.3619755096 
H       -0.4702606767        -1.2074052858         2.7731055134 
H       -2.9254315213        -2.4596206430         3.4311964496 
O       -3.8202583970        -0.8797095297         0.8630052938 
C       -4.7585956514         0.0308255177         1.4564167820 
H       -3.2650869666        -1.3153384512         1.5906721301 
H       -5.7202578112        -0.0631230940         0.9325811939 
H       -4.9071659953        -0.1973714548         2.5214511901 
H       -4.4077212310         1.0714097251         1.3722342373 
H       -1.2833524927         3.2354751205        -3.0001217683 
C       -1.4319228365         3.4636720930        -4.0651561764 
O       -2.3702600909         2.5531370456        -4.6585676646 
H       -1.7827972570         4.5042563005        -4.1493387212 
H       -0.4702606767         3.3697234813        -4.5889917645 
H       -2.9254315213         2.1175081241        -3.9309008283 
O       -3.8202583970         1.4088548539        -2.8180433451 
H       -3.2650869666         0.9732259323        -2.0903765089 
C       -4.7585956514         2.3193899013        -2.2246318569 
H       -5.7202578112         2.2254412895        -2.7484674450 
H       -4.9071659953         2.0911929287        -1.1595974489 
H       -4.4077212310         3.3599741087        -2.3088144017 
C       -1.4319228365         3.4636720930         3.2969411015 
O       -2.3702600909         2.5531370456         2.7035296133 
H       -1.7827972570         4.5042563005         3.2127585567 
H       -1.2833524927         3.2354751205         4.3619755096 
H       -0.4702606767         3.3697234813         2.7731055134 
H       -2.9254315213         2.1175081241         3.4311964496 
H       -3.2650869666         3.2617903159         1.5906721301 
O       -3.8202583970         3.6974192374         0.8630052938 
C       -4.7585956514         4.6079542848         1.4564167820 
H       -5.7202578112         4.5140056731         0.9325811939 
H       -4.9071659953         4.3797573123         2.5214511901 
H       -4.4077212310         5.6485384922         1.3722342373 
C        1.4319228365        -1.1751077095        -0.3841075374 
H        1.2833524927        -0.9469107370         0.6809268706 
O        2.3702600909        -0.2645726621        -0.9775190256 
H        1.7827972570        -2.2156919169        -0.4682900822 
H        0.4702606767        -1.0811590977        -0.9079431256 
H        2.9254315213         0.1710562595        -0.2498521894 
H        1.2833524927        -3.2354751205        -3.0001217683 
C        1.4319228365        -3.4636720930        -4.0651561764 
O        2.3702600909        -2.5531370456        -4.6585676646 
H        1.7827972570        -4.5042563005        -4.1493387212 
H        0.4702606767        -3.3697234813        -4.5889917645 
H        2.9254315213        -2.1175081241        -3.9309008283 
O        3.8202583970        -1.4088548539        -2.8180433451 
C        4.7585956514        -2.3193899013        -2.2246318569 
H        3.2650869666        -0.9732259323        -2.0903765089 
H        4.4077212310        -3.3599741087        -2.3088144017 
H        5.7202578112        -2.2254412895        -2.7484674450 
H        4.9071659953        -2.0911929287        -1.1595974489 
C        1.4319228365        -3.4636720930         3.2969411015 
O        2.3702600909        -2.5531370456         2.7035296133 
H        1.7827972570        -4.5042563005         3.2127585567 
H        1.2833524927        -3.2354751205         4.3619755096 
H        0.4702606767        -3.3697234813         2.7731055134 
H        2.9254315213        -2.1175081241         3.4311964496 
H        3.2650869666        -3.2617903159         1.5906721301 
O        3.8202583970        -3.6974192374         0.8630052938 
C        4.7585956514        -4.6079542848         1.4564167820 
H        5.7202578112        -4.5140056731         0.9325811939 
H        4.9071659953        -4.3797573123         2.5214511901 
H        4.4077212310        -5.6485384922         1.3722342373 
C        1.4319228365         1.1134566741        -4.0651561764 
O        2.3702600909         2.0239917215        -4.6585676646 
H        1.7827972570         0.0728724666        -4.1493387212 
H        1.2833524927         1.3416536466        -3.0001217683 
H        0.4702606767         1.2074052858        -4.5889917645 
H        2.9254315213         2.4596206430        -3.9309008283 
H        4.4077212310         1.2171546584        -2.3088144017 
C        4.7585956514         2.2577388658        -2.2246318569 
O        3.8202583970         3.1682739132        -2.8180433451 
H        5.7202578112         2.3516874776        -2.7484674450 
H        4.9071659953         2.4859358384        -1.1595974489 
H        3.2650869666         3.6039028348        -2.0903765089 
