          72

C        2.6614646323         0.9432201090         2.6374204977 
O        3.2321024244         0.6461999336         1.3540119186 
H        2.4694788819         2.0216336858         2.7427316703 
H        1.7096830739         0.4027669912         2.7142556141 
H        3.3079424297         0.6151157831         3.4662021309 
H        4.0904222145         1.1654655686         1.2514204070 
C        2.3184227904         4.0366673137         0.2361645200 
O        1.7477849983         4.3336874891        -1.0472440591 
H        1.6719449930         4.3647716396         1.0649461532 
H        2.5104085408         2.9582537369         0.3414756926 
H        3.2702043488         4.5771204315         0.3129996365 
H        0.8894652082         3.8144218541        -1.1498355706 
C       -2.6614646323        -0.9432201090        -2.1650914576 
O       -3.2321024244        -0.6461999336        -3.4485000367 
H       -3.3079424297        -0.6151157831        -1.3363098244 
H       -2.4694788819        -2.0216336858        -2.0597802850 
H       -1.7096830739        -0.4027669912        -2.0882563412 
H       -4.0904222145        -1.1654655686        -3.5510915483 
O       -1.7477849983        -4.3336874891        -1.0472440591 
C       -2.3184227904        -4.0366673137         0.2361645200 
H       -0.8894652082        -3.8144218541        -1.1498355706 
H       -2.5104085408        -2.9582537369         0.3414756926 
H       -3.2702043488        -4.5771204315         0.3129996365 
H       -1.6719449930        -4.3647716396         1.0649461532 
C       -2.6614646323        -0.9432201090         2.6374204977 
O       -3.2321024244        -0.6461999336         1.3540119186 
H       -3.3079424297        -0.6151157831         3.4662021309 
H       -2.4694788819        -2.0216336858         2.7427316703 
H       -1.7096830739        -0.4027669912         2.7142556141 
H       -4.0904222145        -1.1654655686         1.2514204070 
C       -4.0366673137         2.3184227904        -0.2361645200 
O       -4.3336874891         1.7477849983         1.0472440591 
H       -4.3647716396         1.6719449930        -1.0649461532 
H       -2.9582537369         2.5104085408        -0.3414756926 
H       -4.5771204315         3.2702043488        -0.3129996365 
H       -3.8144218541         0.8894652082         1.1498355706 
C       -0.9432201090         2.6614646323        -2.6374204977 
H       -2.0216336858         2.4694788819        -2.7427316703 
H       -0.4027669912         1.7096830739        -2.7142556141 
H       -0.6151157831         3.3079424297        -3.4662021309 
O       -0.6461999336         3.2321024244        -1.3540119186 
H       -1.1654655686         4.0904222145        -1.2514204070 
C       -0.9432201090         2.6614646323         2.1650914576 
H       -2.0216336858         2.4694788819         2.0597802850 
H       -0.4027669912         1.7096830739         2.0882563412 
H       -0.6151157831         3.3079424297         1.3363098244 
O       -0.6461999336         3.2321024244         3.4485000367 
H       -1.1654655686         4.0904222145         3.5510915483 
C        0.9432201090        -2.6614646323        -2.6374204977 
H        0.6151157831        -3.3079424297        -3.4662021309 
H        2.0216336858        -2.4694788819        -2.7427316703 
H        0.4027669912        -1.7096830739        -2.7142556141 
O        0.6461999336        -3.2321024244        -1.3540119186 
H        1.1654655686        -4.0904222145        -1.2514204070 
C        4.0366673137        -2.3184227904        -0.2361645200 
O        4.3336874891        -1.7477849983         1.0472440591 
H        2.9582537369        -2.5104085408        -0.3414756926 
H        4.5771204315        -3.2702043488        -0.3129996365 
H        4.3647716396        -1.6719449930        -1.0649461532 
H        3.8144218541        -0.8894652082         1.1498355706 
C        0.9432201090        -2.6614646323         2.1650914576 
H        0.6151157831        -3.3079424297         1.3363098244 
H        2.0216336858        -2.4694788819         2.0597802850 
H        0.4027669912        -1.7096830739         2.0882563412 
O        0.6461999336        -3.2321024244         3.4485000367 
H        1.1654655686        -4.0904222145         3.5510915483 
C        2.6614646323         0.9432201090        -2.1650914576 
O        3.2321024244         0.6461999336        -3.4485000367 
H        2.4694788819         2.0216336858        -2.0597802850 
H        1.7096830739         0.4027669912        -2.0882563412 
H        3.3079424297         0.6151157831        -1.3363098244 
H        4.0904222145         1.1654655686        -3.5510915483 
