         108

C        1.2691280958         1.4467320702         3.3414042355 
H        1.3003671879         2.5456646561         3.3467684645 
O        2.2019397408         0.9399988180         4.3098087036 
H        0.2476749328         1.1205050401         3.5858861302 
H        1.5199999662         1.0969233456         2.3300458299 
H        2.7134477864         0.1714974544         3.8926828022 
H        1.5199999662         4.9138924264         0.1017867159 
C        1.2691280958         5.2637011510         1.1131451215 
H        1.3003671879         6.3626337369         1.1185093505 
O        2.2019397408         4.7569678988         2.0815495896 
H        0.2476749328         4.9374741209         1.3576270162 
H        2.7134477864         3.9884665352         1.6644236882 
H        4.4718453821         0.6371801157         2.2326389075 
C        4.5030844742        -0.4617524702         2.2272746785 
H        5.5245376372        -0.7879795003         2.4717565732 
O        3.5702728292        -0.9684857224         3.1956791466 
H        4.2522126038        -0.8115611948         1.2159162729 
H        3.0587647836        -1.7369870860         2.7785532452 
O        3.5702728292         2.8484833584         0.9674200326 
C        4.5030844742         3.3552166106        -0.0009844355 
H        3.0587647836         2.0799819948         0.5502941312 
H        5.5245376372         3.0289895805         0.2434974592 
H        4.4718453821         4.4541491965         0.0043797935 
H        4.2522126038         3.0054078860        -1.0123428411 
C       -1.2691280958        -1.4467320702        -1.1151139925 
O       -2.2019397408        -0.9399988180        -0.1467095244 
H       -0.2476749328        -1.1205050401        -0.8706320978 
H       -1.5199999662        -1.0969233456        -2.1264723981 
H       -1.3003671879        -2.5456646561        -1.1097497635 
H       -2.7134477864        -0.1714974544        -0.5638354258 
H       -4.4718453821        -0.6371801157        -2.2238793205 
C       -4.5030844742         0.4617524702        -2.2292435495 
O       -3.5702728292         0.9684857224        -1.2608390814 
H       -5.5245376372         0.7879795003        -1.9847616548 
H       -4.2522126038         0.8115611948        -3.2406019551 
H       -3.0587647836         1.7369870860        -1.6779649828 
C       -1.2691280958        -1.4467320702         3.3414042355 
O       -2.2019397408        -0.9399988180         4.3098087036 
H       -0.2476749328        -1.1205050401         3.5858861302 
H       -1.5199999662        -1.0969233456         2.3300458299 
H       -1.3003671879        -2.5456646561         3.3467684645 
H       -2.7134477864        -0.1714974544         3.8926828022 
H       -1.5199999662        -4.9138924264         0.1017867159 
C       -1.2691280958        -5.2637011510         1.1131451215 
O       -2.2019397408        -4.7569678988         2.0815495896 
H       -0.2476749328        -4.9374741209         1.3576270162 
H       -1.3003671879        -6.3626337369         1.1185093505 
H       -2.7134477864        -3.9884665352         1.6644236882 
H       -4.4718453821        -0.6371801157         2.2326389075 
C       -4.5030844742         0.4617524702         2.2272746785 
O       -3.5702728292         0.9684857224         3.1956791466 
H       -5.5245376372         0.7879795003         2.4717565732 
H       -4.2522126038         0.8115611948         1.2159162729 
H       -3.0587647836         1.7369870860         2.7785532452 
O       -3.5702728292        -2.8484833584         0.9674200326 
C       -4.5030844742        -3.3552166106        -0.0009844355 
H       -3.0587647836        -2.0799819948         0.5502941312 
H       -4.4718453821        -4.4541491965         0.0043797935 
H       -5.5245376372        -3.0289895805         0.2434974592 
H       -4.2522126038        -3.0054078860        -1.0123428411 
C       -1.2691280958         2.3702370106        -3.3433731065 
O       -2.2019397408         2.8769702628        -2.3749686384 
H       -0.2476749328         2.6964640407        -3.0988912118 
H       -1.5199999662         2.7200457352        -4.3547315121 
H       -1.3003671879         1.2713044247        -3.3380088775 
H       -2.7134477864         3.6454716264        -2.7920945398 
C       -1.2691280958         2.3702370106         1.1131451215 
O       -2.2019397408         2.8769702628         2.0815495896 
H       -0.2476749328         2.6964640407         1.3576270162 
H       -1.5199999662         2.7200457352         0.1017867159 
H       -1.3003671879         1.2713044247         1.1185093505 
H       -2.7134477864         3.6454716264         1.6644236882 
C        4.5030844742        -0.4617524702        -2.2292435495 
H        5.5245376372        -0.7879795003        -1.9847616548 
O        3.5702728292        -0.9684857224        -1.2608390814 
H        4.4718453821         0.6371801157        -2.2238793205 
H        4.2522126038        -0.8115611948        -3.2406019551 
H        3.0587647836        -1.7369870860        -1.6779649828 
C        1.2691280958        -2.3702370106        -3.3433731065 
H        1.3003671879        -1.2713044247        -3.3380088775 
O        2.2019397408        -2.8769702628        -2.3749686384 
H        0.2476749328        -2.6964640407        -3.0988912118 
H        1.5199999662        -2.7200457352        -4.3547315121 
H        2.7134477864        -3.6454716264        -2.7920945398 
C        1.2691280958        -2.3702370106         1.1131451215 
H        1.3003671879        -1.2713044247         1.1185093505 
O        2.2019397408        -2.8769702628         2.0815495896 
H        0.2476749328        -2.6964640407         1.3576270162 
H        1.5199999662        -2.7200457352         0.1017867159 
H        2.7134477864        -3.6454716264         1.6644236882 
C        1.2691280958         1.4467320702        -1.1151139925 
H        1.3003671879         2.5456646561        -1.1097497635 
O        2.2019397408         0.9399988180        -0.1467095244 
H        0.2476749328         1.1205050401        -0.8706320978 
H        1.5199999662         1.0969233456        -2.1264723981 
H        2.7134477864         0.1714974544        -0.5638354258 
O       -2.2019397408        -0.9399988180        -4.6032277524 
C       -1.2691280958        -1.4467320702        -5.5716322205 
H       -2.7134477864        -0.1714974544        -5.0203536538 
H       -0.2476749328        -1.1205050401        -5.3271503258 
H       -1.5199999662        -1.0969233456        -6.5829906261 
H       -1.3003671879        -2.5456646561        -5.5662679915 
O        2.2019397408         0.9399988180        -4.6032277524 
H        2.7134477864         0.1714974544        -5.0203536538 
C        1.2691280958         1.4467320702        -5.5716322205 
H        1.3003671879         2.5456646561        -5.5662679915 
H        0.2476749328         1.1205050401        -5.3271503258 
H        1.5199999662         1.0969233456        -6.5829906261 
