         120

C        0.8697392735         2.5404109330         0.0354832971 
H        0.0179493017         2.3429518056        -0.6340583254 
H        1.8093921657         2.3710121728        -0.5125394892 
H        0.8303611197         1.8364604130         0.8771454741 
O        0.8093549964         3.8590128368         0.5823381681 
H        0.9367162599         4.5146387701        -0.1484591156 
H        3.3912210281         2.8296010210         1.3762800954 
C        4.3308739203         2.6602022609         1.9243028817 
H        5.1826638921         2.8576613882         1.2547612592 
O        4.3912581975         1.3416003571         2.4711577527 
H        4.3702520741         3.3641527809         2.7659650587 
H        4.2638969340         0.6859744237         1.7403604690 
H        1.8093921657         2.3710121728         3.2650996800 
C        0.8697392735         2.5404109330         3.8131224663 
H        0.0179493017         2.3429518056         3.1435808438 
H        0.8303611197         1.8364604130         4.6547846433 
O        0.8093549964         3.8590128368         4.3599773373 
H        0.9367162599         4.5146387701         3.6291800536 
C       -0.8697392735        -2.5404109330        -3.7421558721 
O       -0.8093549964        -3.8590128368        -3.1953010011 
H       -0.0179493017        -2.3429518056        -4.4116974946 
H       -1.8093921657        -2.3710121728        -4.2901786584 
H       -0.8303611197        -1.8364604130        -2.9004936951 
H       -0.9367162599        -4.5146387701        -3.9260982848 
H       -1.8093921657        -2.3710121728        -0.5125394892 
C       -0.8697392735        -2.5404109330         0.0354832971 
O       -0.8093549964        -3.8590128368         0.5823381681 
H       -0.0179493017        -2.3429518056        -0.6340583254 
H       -0.8303611197        -1.8364604130         0.8771454741 
H       -0.9367162599        -4.5146387701        -0.1484591156 
H       -3.3912210281        -2.8296010210        -2.4013590738 
C       -4.3308739203        -2.6602022609        -1.8533362875 
H       -5.1826638921        -2.8576613882        -2.5228779100 
H       -4.3702520741        -3.3641527809        -1.0116741105 
O       -4.3912581975        -1.3416003571        -1.3064814165 
H       -4.2638969340        -0.6859744237        -2.0372787002 
H       -1.8093921657        -2.3710121728         3.2650996800 
C       -0.8697392735        -2.5404109330         3.8131224663 
O       -0.8093549964        -3.8590128368         4.3599773373 
H       -0.0179493017        -2.3429518056         3.1435808438 
H       -0.8303611197        -1.8364604130         4.6547846433 
H       -0.9367162599        -4.5146387701         3.6291800536 
H       -3.3912210281        -2.8296010210         1.3762800954 
C       -4.3308739203        -2.6602022609         1.9243028817 
H       -5.1826638921        -2.8576613882         1.2547612592 
H       -4.3702520741        -3.3641527809         2.7659650587 
O       -4.3912581975        -1.3416003571         2.4711577527 
H       -4.2638969340        -0.6859744237         1.7403604690 
C       -2.5404109330         0.8697392735        -3.7421558721 
O       -3.8590128368         0.8093549964        -3.1953010011 
H       -2.3429518056         0.0179493017        -4.4116974946 
H       -2.3710121728         1.8093921657        -4.2901786584 
H       -1.8364604130         0.8303611197        -2.9004936951 
H       -4.5146387701         0.9367162599        -3.9260982848 
H       -2.3710121728         1.8093921657        -0.5125394892 
C       -2.5404109330         0.8697392735         0.0354832971 
O       -3.8590128368         0.8093549964         0.5823381681 
H       -2.3429518056         0.0179493017        -0.6340583254 
H       -1.8364604130         0.8303611197         0.8771454741 
H       -4.5146387701         0.9367162599        -0.1484591156 
H       -2.8296010210         3.3912210281        -2.4013590738 
C       -2.6602022609         4.3308739203        -1.8533362875 
H       -2.8576613882         5.1826638921        -2.5228779100 
H       -3.3641527809         4.3702520741        -1.0116741105 
O       -1.3416003571         4.3912581975        -1.3064814165 
H       -0.6859744237         4.2638969340        -2.0372787002 
H       -2.3710121728         1.8093921657         3.2650996800 
C       -2.5404109330         0.8697392735         3.8131224663 
O       -3.8590128368         0.8093549964         4.3599773373 
H       -2.3429518056         0.0179493017         3.1435808438 
H       -1.8364604130         0.8303611197         4.6547846433 
H       -4.5146387701         0.9367162599         3.6291800536 
H       -2.8296010210         3.3912210281         1.3762800954 
C       -2.6602022609         4.3308739203         1.9243028817 
H       -2.8576613882         5.1826638921         1.2547612592 
H       -3.3641527809         4.3702520741         2.7659650587 
O       -1.3416003571         4.3912581975         2.4711577527 
H       -0.6859744237         4.2638969340         1.7403604690 
C        2.5404109330        -0.8697392735        -3.7421558721 
H        2.3429518056        -0.0179493017        -4.4116974946 
H        2.3710121728        -1.8093921657        -4.2901786584 
H        1.8364604130        -0.8303611197        -2.9004936951 
O        3.8590128368        -0.8093549964        -3.1953010011 
H        4.5146387701        -0.9367162599        -3.9260982848 
H        2.8296010210        -3.3912210281        -2.4013590738 
C        2.6602022609        -4.3308739203        -1.8533362875 
H        2.8576613882        -5.1826638921        -2.5228779100 
O        1.3416003571        -4.3912581975        -1.3064814165 
H        3.3641527809        -4.3702520741        -1.0116741105 
H        0.6859744237        -4.2638969340        -2.0372787002 
H        2.3710121728        -1.8093921657        -0.5125394892 
C        2.5404109330        -0.8697392735         0.0354832971 
H        2.3429518056        -0.0179493017        -0.6340583254 
H        1.8364604130        -0.8303611197         0.8771454741 
O        3.8590128368        -0.8093549964         0.5823381681 
H        4.5146387701        -0.9367162599        -0.1484591156 
H        2.8296010210        -3.3912210281         1.3762800954 
C        2.6602022609        -4.3308739203         1.9243028817 
H        2.8576613882        -5.1826638921         1.2547612592 
O        1.3416003571        -4.3912581975         2.4711577527 
H        3.3641527809        -4.3702520741         2.7659650587 
H        0.6859744237        -4.2638969340         1.7403604690 
H        2.3710121728        -1.8093921657         3.2650996800 
C        2.5404109330        -0.8697392735         3.8131224663 
H        2.3429518056        -0.0179493017         3.1435808438 
H        1.8364604130        -0.8303611197         4.6547846433 
O        3.8590128368        -0.8093549964         4.3599773373 
H        4.5146387701        -0.9367162599         3.6291800536 
C        0.8697392735         2.5404109330        -3.7421558721 
H        0.0179493017         2.3429518056        -4.4116974946 
H        1.8093921657         2.3710121728        -4.2901786584 
H        0.8303611197         1.8364604130        -2.9004936951 
O        0.8093549964         3.8590128368        -3.1953010011 
H        0.9367162599         4.5146387701        -3.9260982848 
H        3.3912210281         2.8296010210        -2.4013590738 
C        4.3308739203         2.6602022609        -1.8533362875 
H        5.1826638921         2.8576613882        -2.5228779100 
O        4.3912581975         1.3416003571        -1.3064814165 
H        4.3702520741         3.3641527809        -1.0116741105 
H        4.2638969340         0.6859744237        -2.0372787002 
