         108

C        2.5642592485         2.4696220006         0.4587537843 
H        2.6409302896         2.4138865547         1.5511569947 
O        3.6002687374         3.3489185531        -0.0456006130 
H        1.5677518200         2.8432648590         0.1883073398 
H        2.6904108875         1.4606515255         0.0384610048 
H        3.2312429057         3.8526181869        -0.8407540866 
O       -1.0398680412         3.3489185531         3.8802269834 
H       -1.4088938728         3.8526181869         3.0850735098 
C       -2.0758775300         2.4696220006         4.3845813807 
H       -1.9992064890         2.4138865547         5.4769845911 
H       -3.0723849586         2.8432648590         4.1141349362 
H       -1.9497258910         1.4606515255         3.9642886012 
H        0.5292310107         2.4777752371         3.5321436633 
O        1.3735267436         1.9696415353         3.5757272147 
C        1.2596452191         1.0660731686         4.6753894111 
H        0.6435904267         0.1838753368         4.4282386364 
H        0.8304586426         1.5546223579         5.5656436113 
H        2.2692339900         0.7270789148         4.9433184842 
C       -0.7847455830         1.0660731686         0.7495618147 
H       -1.4008003754         0.1838753368         0.5024110400 
O       -0.6708640586         1.9696415353        -0.3501003817 
H       -1.2139321595         1.5546223579         1.6398160149 
H        0.2248431879         0.7270789148         1.0174908878 
H       -1.5151597915         2.4777752371        -0.3936839331 
C       -1.8001999429        -2.4696220006        -1.5041600139 
O       -0.7641904540        -3.3489185531        -2.0085144112 
H       -1.7235289019        -2.4138865547        -0.4117568035 
H       -1.6740483039        -1.4606515255        -1.9244527934 
H       -2.7967073714        -2.8432648590        -1.7746064584 
H       -1.1332162857        -3.8526181869        -2.8036678848 
H       -0.1110208846        -4.2385815037        -0.8407540866 
O        0.2580049470        -4.7422811375        -0.0456006130 
C       -0.7780045418        -5.6215776901         0.4587537843 
H       -0.7013335008        -5.6773131359         1.5511569947 
H       -1.7745119703        -5.2479348317         0.1883073398 
H       -0.6518529028        -6.6305481651         0.0384610048 
H        0.8049085978        -2.4777752371        -2.3565977313 
O        1.6492043307        -1.9696415353        -2.3130141799 
C        1.5353228063        -1.0660731686        -1.2133519835 
H        0.9192680138        -0.1838753368        -1.4605027582 
H        1.1061362298        -1.5546223579        -0.3230977833 
H        2.5449115772        -0.7270789148        -0.9454229104 
H       -4.1396160035        -0.7270789148        -0.9454229104 
C       -5.1492047744        -1.0660731686        -1.2133519835 
H       -5.7652595669        -0.1838753368        -1.4605027582 
O       -5.0353232500        -1.9696415353        -2.3130141799 
H       -5.5783913509        -1.5546223579        -0.3230977833 
H       -5.8796189829        -2.4777752371        -2.3565977313 
H       -3.8352281808        -2.4777752371         1.5692298651 
O       -2.9909324478        -1.9696415353         1.6128134165 
C       -3.1048139723        -1.0660731686         2.7124756129 
H       -3.7208687647        -0.1838753368         2.4653248382 
H       -3.5340005488        -1.5546223579         3.6027298131 
H       -2.0952252014        -0.7270789148         2.9804046860 
C        0.5198684464         2.4696220006        -3.4670738121 
H        0.5965394874         2.4138865547        -2.3746706017 
O        1.5558779352         3.3489185531        -3.9714282094 
H       -0.4766389821         2.8432648590        -3.7375202566 
H        0.6460200854         1.4606515255        -3.8873665917 
H        1.1868521036         3.8526181869        -4.7665816830 
O       -3.0842588433         3.3489185531        -0.0456006130 
H       -3.4532846750         3.8526181869        -0.8407540866 
C       -4.1202683322         2.4696220006         0.4587537843 
H       -4.0435972911         2.4138865547         1.5511569947 
H       -5.1167757607         2.8432648590         0.1883073398 
H       -3.9941166932         1.4606515255         0.0384610048 
C       -2.8291363852         1.0660731686        -3.1762657817 
H       -3.4451911776         0.1838753368        -3.4234165564 
O       -2.7152548607         1.9696415353        -4.2759279781 
H       -3.2583229616         1.5546223579        -2.2860115816 
H       -1.8195476142         0.7270789148        -2.9083367087 
H       -3.5595505936         2.4777752371        -4.3195115295 
H        3.2393364031         0.1838753368        -3.4234165564 
C        3.8553911955         1.0660731686        -3.1762657817 
O        3.9692727200         1.9696415353        -4.2759279781 
H        3.4262046191         1.5546223579        -2.2860115816 
H        4.8649799665         0.7270789148        -2.9083367087 
H        3.1249769871         2.4777752371        -4.3195115295 
H       -2.4310892739         4.2385815037         1.1221597116 
O       -2.0620634423         4.7422811375         1.9173131852 
C       -3.0980729311         5.6215776901         2.4216675825 
H       -4.0945803596         5.2479348317         2.1512211380 
H       -3.0214018901         5.6773131359         3.5140707929 
H       -2.9719212921         6.6305481651         2.0013748030 
H        3.8878202093        -2.8432648590        -1.7746064584 
C        4.8843276378        -2.4696220006        -1.5041600139 
O        5.9203371267        -3.3489185531        -2.0085144112 
H        4.9609986788        -2.4138865547        -0.4117568035 
H        5.0104792768        -1.4606515255        -1.9244527934 
H        5.5513112950        -3.8526181869        -2.8036678848 
C        0.2441908593        -2.4696220006         2.4216675825 
O        1.2802003481        -3.3489185531         1.9173131852 
H        0.3208619003        -2.4138865547         3.5140707929 
H        0.3703424982        -1.4606515255         2.0013748030 
H       -0.7523165693        -2.8432648590         2.1512211380 
H        0.9111745164        -3.8526181869         1.1221597116 
H        2.8492993999        -2.4777752371         1.5692298651 
O        3.6935951329        -1.9696415353         1.6128134165 
C        3.5797136084        -1.0660731686         2.7124756129 
H        2.9636588160        -0.1838753368         2.4653248382 
H        3.1505270319        -1.5546223579         3.6027298131 
H        4.5893023793        -0.7270789148         2.9804046860 
C       -0.5090679959        -1.0660731686        -5.1391795799 
H       -1.1251227883        -0.1838753368        -5.3863303546 
O       -0.3951864714        -1.9696415353        -6.2388417763 
H       -0.9382545723        -1.5546223579        -4.2489253798 
H        0.5005207750        -0.7270789148        -4.8712505069 
H       -1.2394822043        -2.4777752371        -6.2824253277 
