         102

C        2.7826752333         0.0116830918         0.9031653625 
H        2.6247133312        -0.0517141531         1.9919997039 
H        3.3964041207        -0.8432404664         0.5818711769 
H        3.3358428370         0.9327145988         0.6809329618 
O        1.5386633644         0.0551443780         0.1830362366 
H        1.0356470783        -0.7972105070         0.3872168043 
H        3.3964041207         3.5779500174         0.5818711769 
C        2.7826752333         4.4328735756         0.9031653625 
H        2.6247133312         4.3694763307         1.9919997039 
H        3.3358428370         5.3539050826         0.6809329618 
O        1.5386633644         4.4763348618         0.1830362366 
H        1.0356470783         3.6239799768         0.3872168043 
H        0.7247226791         1.4136417422         0.5469408343 
O        0.2656836678         2.2647794881         0.8402813859 
C        0.1338237646         2.2161120211         2.2714339936 
H       -0.4082550446         3.1135339085         2.5935503931 
H        1.1144956843         2.1943190699         2.7740618731 
H       -0.4451540193         1.3341585396         2.5848663175 
O       -2.0038817740        -2.2647794881        -3.5455378799 
H       -1.5448427627        -1.4136417422        -3.8388784315 
C       -2.1357416773        -2.2161120211        -2.1143852721 
H       -1.1550697575        -2.1943190699        -1.6117573926 
H       -2.7147194611        -1.3341585396        -1.8009529483 
H       -2.6778204865        -3.1135339085        -1.7922688726 
C       -2.5989333944        -4.4095073920         0.9031653625 
H       -2.7568952965        -4.4729046369         1.9919997039 
H       -1.9852045070        -5.2644309502         0.5818711769 
H       -2.0457657907        -3.4884758850         0.6809329618 
O       -3.8429452633        -4.3660461058         0.1830362366 
H       -4.3459615494        -5.2184009908         0.3872168043 
H        0.2237996511        -0.9327145988         5.0667522275 
C       -0.3293679526        -0.0116830918         5.2889846282 
O       -1.5733798214        -0.0551443780         4.5688555023 
H       -0.4873298547         0.0517141531         6.3778189697 
H        0.2843609348         0.8432404664         4.9676904427 
H       -2.0763961076         0.7972105070         4.7730360700 
H       -1.9852045070        -0.8432404664         0.5818711769 
C       -2.5989333944         0.0116830918         0.9031653625 
H       -2.7568952965        -0.0517141531         1.9919997039 
H       -2.0457657907         0.9327145988         0.6809329618 
O       -3.8429452633         0.0551443780         0.1830362366 
H       -4.3459615494        -0.7972105070         0.3872168043 
O        0.2656836678        -2.1564109957         0.8402813859 
C        0.1338237646        -2.2050784627         2.2714339936 
H        0.7247226791        -3.0075487416         0.5469408343 
H       -0.4082550446        -1.3076565753         2.5935503931 
H        1.1144956843        -2.2268714139         2.7740618731 
H       -0.4451540193        -3.0870319442         2.5848663175 
O       -2.0038817740         2.1564109957        -3.5455378799 
H       -1.5448427627         3.0075487416        -3.8388784315 
C       -2.1357416773         2.2050784627        -2.1143852721 
H       -1.1550697575         2.2268714139        -1.6117573926 
H       -2.7147194611         3.0870319442        -1.8009529483 
H       -2.6778204865         1.3076565753        -1.7922688726 
H       -1.9852045070         3.5779500174         0.5818711769 
C       -2.5989333944         4.4328735756         0.9031653625 
H       -2.7568952965         4.3694763307         1.9919997039 
H       -2.0457657907         5.3539050826         0.6809329618 
O       -3.8429452633         4.4763348618         0.1830362366 
H       -4.3459615494         3.6239799768         0.3872168043 
H       -4.6568859486         1.4136417422         0.5469408343 
O       -5.1159249599         2.2647794881         0.8402813859 
C       -5.2477848631         2.2161120211         2.2714339936 
H       -5.7898636723         3.1135339085         2.5935503931 
H       -4.2671129434         2.1943190699         2.7740618731 
H       -5.8267626470         1.3341585396         2.5848663175 
C        0.5131097914        -0.0116830918        -3.4826539033 
O       -0.7309020774        -0.0551443780        -4.2027830292 
H        0.3551478893         0.0517141531        -2.3938195618 
H        1.1268386788         0.8432404664        -3.8039480888 
H        1.0662773951        -0.9327145988        -3.7048863040 
H       -1.2339183636         0.7972105070        -3.9986024615 
H        0.3551478893        -4.3694763307        -2.3938195618 
C        0.5131097914        -4.4328735756        -3.4826539033 
O       -0.7309020774        -4.4763348618        -4.2027830292 
H        1.1268386788        -3.5779500174        -3.8039480888 
H        1.0662773951        -5.3539050826        -3.7048863040 
H       -1.2339183636        -3.6239799768        -3.9986024615 
C        3.2458669504        -2.2161120211        -2.1143852721 
H        4.2265388702        -2.1943190699        -1.6117573926 
H        2.6668891666        -1.3341585396        -1.8009529483 
H        2.7037881412        -3.1135339085        -1.7922688726 
O        3.3777268537        -2.2647794881        -3.5455378799 
H        3.8367658650        -1.4136417422        -3.8388784315 
C        2.7826752333        -4.4095073920         0.9031653625 
H        2.6247133312        -4.4729046369         1.9919997039 
H        3.3964041207        -5.2644309502         0.5818711769 
H        3.3358428370        -3.4884758850         0.6809329618 
O        1.5386633644        -4.3660461058         0.1830362366 
H        1.0356470783        -5.2184009908         0.3872168043 
H        1.0662773951         3.4884758850        -3.7048863040 
C        0.5131097914         4.4095073920        -3.4826539033 
O       -0.7309020774         4.3660461058        -4.2027830292 
H        0.3551478893         4.4729046369        -2.3938195618 
H        1.1268386788         5.2644309502        -3.8039480888 
H       -1.2339183636         5.2184009908        -3.9986024615 
C        3.2458669504         2.2050784627        -2.1143852721 
H        4.2265388702         2.2268714139        -1.6117573926 
H        2.6668891666         3.0870319442        -1.8009529483 
H        2.7037881412         1.3076565753        -1.7922688726 
O        3.3777268537         2.1564109957        -3.5455378799 
H        3.8367658650         3.0075487416        -3.8388784315 
