         126

H        0.0167979104         3.0754659346         3.4467669119 
C        0.1684715125         3.3366335231         4.5050322753 
O       -0.6802435331         2.5496655312         5.3565266710 
H       -0.0992483713         4.3920900164         4.6479211066 
H        1.2331737793         3.2023973631         4.7597457214 
H       -0.3197950033         1.6102601034         5.4032190747 
H        4.3026665599         1.0151661178         2.0163966817 
C        4.0349466761        -0.0402903755         2.1592855130 
H        4.1866202782        -0.3014579640         3.2175508764 
O        4.8836617217        -0.8272583674         1.3077911173 
H        2.9702444093        -0.1745265355         1.9045720669 
H        4.5232131919        -1.7666637952         1.2610987136 
H        4.1749392918         3.1091918922         0.1654596374 
O        3.9424240141         3.4551277153         1.0882031877 
C        2.5237780136         3.3587311763         1.2647984416 
H        2.2771014753         3.7469162691         2.2602801162 
H        2.1815290425         2.3137050817         1.2019101356 
H        1.9804217635         3.9542141571         0.5165924526 
H        1.9263167133         0.3699923705         4.4040376721 
C        1.6796401750        -0.0181927223         5.3995193467 
H        2.0218891461        -1.0632188169         5.4624076527 
H        2.2229964251         0.5772902585         6.1477253357 
O        0.2609941745         0.0782038167         5.5761146006 
H        0.0284788968        -0.2677320064         6.4988581509 
C       -0.1684715125        -0.0402903755        -4.5050322753 
H       -0.0167979104        -0.3014579640        -3.4467669119 
O        0.6802435331        -0.8272583674        -5.3565266710 
H        0.0992483713         1.0151661178        -4.6479211066 
H       -1.2331737793        -0.1745265355        -4.7597457214 
H        0.3197950033        -1.7666637952        -5.4032190747 
H       -2.9702444093        -3.5514504341        -1.9045720669 
C       -4.0349466761        -3.4172142741        -2.1592855130 
O       -4.8836617217        -4.2041822660        -1.3077911173 
H       -4.3026665599        -2.3617577808        -2.0163966817 
H       -4.1866202782        -3.6783818626        -3.2175508764 
H       -4.5232131919        -5.1435876938        -1.2610987136 
O       -0.1933564635        -4.2041822660        -1.3077911173 
C        0.6553585821        -3.4172142741        -2.1592855130 
H        0.1670920663        -5.1435876938        -1.2610987136 
H        0.3876386983        -2.3617577808        -2.0163966817 
H        1.7200608489        -3.5514504341        -1.9045720669 
H        0.5036849800        -3.6783818626        -3.2175508764 
H       -4.1749392918        -0.2677320064        -0.1654596374 
O       -3.9424240141         0.0782038167        -1.0882031877 
C       -2.5237780136        -0.0181927223        -1.2647984416 
H       -2.1815290425        -1.0632188169        -1.2019101356 
H       -1.9804217635         0.5772902585        -0.5165924526 
H       -2.2771014753         0.3699923705        -2.2602801162 
C       -0.6553585821        -0.0402903755         2.1592855130 
H       -0.5036849800        -0.3014579640         3.2175508764 
O        0.1933564635        -0.8272583674         1.3077911173 
H       -0.3876386983         1.0151661178         2.0163966817 
H       -1.7200608489        -0.1745265355         1.9045720669 
H       -0.1670920663        -1.7666637952         1.2610987136 
O       -4.4969487947        -0.8272583674         1.3077911173 
H       -4.8573973245        -1.7666637952         1.2610987136 
C       -5.3456638403        -0.0402903755         2.1592855130 
H       -5.1939902382        -0.3014579640         3.2175508764 
H       -5.0779439565         1.0151661178         2.0163966817 
H       -6.4103661071        -0.1745265355         1.9045720669 
H       -0.5153659664        -3.6446559050         0.1654596374 
O       -0.7478812441        -3.2987200819         1.0882031877 
C       -2.1665272446        -3.3951166209         1.2647984416 
H       -2.4132037829        -3.0069315281         2.2602801162 
H       -2.5087762157        -4.4401427155         1.2019101356 
H       -2.7098834947        -2.7996336401         0.5165924526 
H       -2.9702444093         3.2023973631        -1.9045720669 
C       -4.0349466761         3.3366335231        -2.1592855130 
O       -4.8836617217         2.5496655312        -1.3077911173 
H       -4.3026665599         4.3920900164        -2.0163966817 
H       -4.1866202782         3.0754659346        -3.2175508764 
H       -4.5232131919         1.6102601034        -1.2610987136 
O       -0.1933564635         2.5496655312        -1.3077911173 
C        0.6553585821         3.3366335231        -2.1592855130 
H        0.1670920663         1.6102601034        -1.2610987136 
H        0.3876386983         4.3920900164        -2.0163966817 
H        1.7200608489         3.2023973631        -1.9045720669 
H        0.5036849800         3.0754659346        -3.2175508764 
H       -0.1670920663         4.9871840020         1.2610987136 
O        0.1933564635         5.9265894298         1.3077911173 
C       -0.6553585821         6.7135574217         2.1592855130 
H       -0.5036849800         6.4523898332         3.2175508764 
H       -0.3876386983         7.7690139150         2.0163966817 
H       -1.7200608489         6.5793212617         1.9045720669 
H       -0.5153659664         3.1091918922         0.1654596374 
O       -0.7478812441         3.4551277153         1.0882031877 
C       -2.1665272446         3.3587311763         1.2647984416 
H       -2.4132037829         3.7469162691         2.2602801162 
H       -2.5087762157         2.3137050817         1.2019101356 
H       -2.7098834947         3.9542141571         0.5165924526 
H       -2.7639885449         0.3699923705         4.4040376721 
C       -3.0106650832        -0.0181927223         5.3995193467 
H       -2.6684161121        -1.0632188169         5.4624076527 
H       -2.4673088331         0.5772902585         6.1477253357 
O       -4.4293110837         0.0782038167         5.5761146006 
H       -4.6618263614        -0.2677320064         6.4988581509 
H        0.5153659664        -0.2677320064        -0.1654596374 
O        0.7478812441         0.0782038167        -1.0882031877 
C        2.1665272446        -0.0181927223        -1.2647984416 
H        2.5087762157        -1.0632188169        -1.2019101356 
H        2.7098834947         0.5772902585        -0.5165924526 
H        2.4132037829         0.3699923705        -2.2602801162 
H        0.0167979104        -3.6783818626         3.4467669119 
C        0.1684715125        -3.4172142741         4.5050322753 
O       -0.6802435331        -4.2041822660         5.3565266710 
H       -0.0992483713        -2.3617577808         4.6479211066 
H        1.2331737793        -3.5514504341         4.7597457214 
H       -0.3197950033        -5.1435876938         5.4032190747 
O        3.9424240141        -3.2987200819         1.0882031877 
C        2.5237780136        -3.3951166209         1.2647984416 
H        4.1749392918        -3.6446559050         0.1654596374 
H        2.2771014753        -3.0069315281         2.2602801162 
H        2.1815290425        -4.4401427155         1.2019101356 
H        1.9804217635        -2.7996336401         0.5165924526 
H        5.2056712246        -0.2677320064        -0.1654596374 
O        5.4381865023         0.0782038167        -1.0882031877 
C        6.8568325028        -0.0181927223        -1.2647984416 
H        7.1990814739        -1.0632188169        -1.2019101356 
H        7.4001887529         0.5772902585        -0.5165924526 
H        7.1035090411         0.3699923705        -2.2602801162 
H        4.8573973245         1.6102601034        -1.2610987136 
O        4.4969487947         2.5496655312        -1.3077911173 
C        5.3456638403         3.3366335231        -2.1592855130 
H        5.0779439565         4.3920900164        -2.0163966817 
H        6.4103661071         3.2023973631        -1.9045720669 
H        5.1939902382         3.0754659346        -3.2175508764 
