         108

C        3.7726702873         1.7374838166         1.1909888355 
H        2.9111195062         2.0970831435         1.7710434976 
O        4.6175103544         2.8317100533         0.7590636218 
H        4.3790543436         1.0717504958         1.8140034034 
H        3.4254642642         1.1573659954         0.3245340058 
H        4.1228653831         3.3539746065         0.0558331772 
H       -2.7633343112         3.6746021341         1.9823200815 
O       -2.2686893399         4.1968666873         2.6855505260 
C       -3.1135294071         5.2910929240         3.1174757398 
H       -3.4607354301         5.8712107452         2.2510209100 
H       -3.9750801881         4.9314935971         3.6975304018 
H       -2.5071453508         5.9568262448         3.7404903077 
O        1.3485783435         1.6783775543         3.6372917567 
C        2.2362961074         1.6622025318         4.7545599378 
H        0.5139672761         2.1200932193         3.9225146220 
H        3.1188846989         1.0719852601         4.4740068710 
H        2.5785910281         2.6731605508         5.0344171908 
H        1.7837090417         1.1866116994         5.6423679769 
C       -0.2566152231         1.6622025318         0.9015861293 
O       -1.1443329870         1.6783775543        -0.2156820518 
H        0.6259733684         1.0719852601         0.6210330625 
H        0.0856796976         2.6731605508         1.1814433823 
H       -0.7092022888         1.1866116994         1.7893941684 
H       -1.9789440544         2.1200932193         0.0695408135 
C       -1.5401130578        -1.7374838166        -0.7354980687 
O       -0.6952729906        -2.8317100533        -1.1674232825 
H       -2.4016638388        -2.0970831435        -0.1554434067 
H       -0.9337290015        -1.0717504958        -0.1124835008 
H       -1.8873190808        -1.1573659954        -1.6019528985 
H       -1.1899179619        -3.3539746065        -1.8706537270 
H        0.8409279601        -2.1200932193        -1.8569460907 
O        1.6755390275        -1.6783775543        -2.1421689561 
C        2.5632567915        -1.6622025318        -1.0249007749 
H        2.1106697258        -1.1866116994        -0.1370927358 
H        3.4458453829        -1.0719852601        -1.3054538418 
H        2.9055517122        -2.6731605508        -0.7450435220 
H       -4.6868099767        -1.0719852601        -1.3054538418 
C       -5.5693985681        -1.6622025318        -1.0249007749 
O       -6.4571163321        -1.6783775543        -2.1421689561 
H       -6.0219856338        -1.1866116994        -0.1370927358 
H       -5.2271036474        -2.6731605508        -0.7450435220 
H       -7.2917273995        -2.1200932193        -1.8569460907 
O       -3.9642050016        -1.6783775543         1.7108048524 
H       -4.7988160690        -2.1200932193         1.9960277178 
C       -3.0764872376        -1.6622025318         2.8280730336 
H       -3.5290743033        -1.1866116994         3.7158810727 
H       -2.1938986462        -1.0719852601         2.5475199667 
H       -2.7341923169        -2.6731605508         3.1079302865 
C        1.2797589568         1.7374838166        -2.6619849730 
H        0.4182081757         2.0970831435        -2.0819303109 
O        2.1245990239         2.8317100533        -3.0939101867 
H        1.8861430131         1.0717504958        -2.0389704051 
H        0.9325529337         1.1573659954        -3.5284398027 
H        1.6299540526         3.3539746065        -3.7971406313 
C       -2.7495265536         1.6622025318        -2.9513876792 
O       -3.6372443175         1.6783775543        -4.0686558603 
H       -1.8669379621         1.0719852601        -3.2319407460 
H       -2.4072316329         2.6731605508        -2.6715304263 
H       -3.2021136193         1.1866116994        -2.0635796401 
H       -4.4718553849         2.1200932193        -3.7834329950 
H       -1.1607759676         4.3554161898        -0.7450435220 
C       -1.5030708883         5.3663742088        -1.0249007749 
H       -0.6204822969         5.9565914805        -1.3054538418 
H       -1.9556579540         5.8419650412        -0.1370927358 
O       -2.3907886523         5.3501991863        -2.1421689561 
H       -3.2253997197         4.9084835213        -1.8569460907 
C       -4.3599850723         1.7374838166         1.1909888355 
H       -5.2215358534         2.0970831435         1.7710434976 
O       -3.5151450052         2.8317100533         0.7590636218 
H       -3.7536010160         1.0717504958         1.8140034034 
H       -4.7071910954         1.1573659954         0.3245340058 
H       -4.0097899765         3.3539746065         0.0558331772 
C        0.9527982727        -1.7374838166         3.1174757398 
O        1.7976383399        -2.8317100533         2.6855505260 
H        0.0912474917        -2.0970831435         3.6975304018 
H        1.5591823290        -1.0717504958         3.7404903077 
H        0.6055922497        -1.1573659954         2.2510209100 
H        1.3029933686        -3.3539746065         1.9823200815 
O        0.5511826746        -4.1968666873         0.7590636218 
C       -0.2936573925        -5.2910929240         1.1909888355 
H        0.0565377033        -3.6746021341         0.0558331772 
H       -0.6408634156        -5.8712107452         0.3245340058 
H       -1.1552081736        -4.9314935971         1.7710434976 
H        0.3127266638        -5.9568262448         1.8140034034 
H        3.3338392906        -2.1200932193         1.9960277178 
O        4.1684503580        -1.6783775543         1.7108048524 
C        5.0561681220        -1.6622025318         2.8280730336 
H        4.6035810563        -1.1866116994         3.7158810727 
H        5.9387567134        -1.0719852601         2.5475199667 
H        5.3984630427        -2.6731605508         3.1079302865 
H        1.6646638410         4.9314935971        -0.1554434067 
C        2.5262146220         5.2910929240        -0.7354980687 
H        2.1790085990         5.8712107452        -1.6019528985 
H        3.1325986783         5.9568262448        -0.1124835008 
O        3.3710546892         4.1968666873        -1.1674232825 
H        2.8764097179         3.6746021341        -1.8706537270 
H       -2.2142797649         1.1573659954         4.1775078143 
C       -1.8670737418         1.7374838166         5.0439626440 
H       -2.7286245229         2.0970831435         5.6240173061 
O       -1.0222336747         2.8317100533         4.6120374303 
H       -1.2606896856         1.0717504958         5.6669772119 
H       -1.5168786460         3.3539746065         3.9088069857 
C        0.0703454610        -1.6622025318        -4.8778745834 
O       -0.8173723030        -1.6783775543        -5.9951427646 
H       -0.3822416047        -1.1866116994        -3.9900665443 
H        0.9529340524        -1.0719852601        -5.1584276503 
H        0.4126403817        -2.6731605508        -4.5980173305 
H       -1.6519833704        -2.1200932193        -5.7099198992 
