         108

C        3.8165572185         1.8201358960         0.1594297065 
H        4.2532184916         1.7638710053        -0.8460895000 
O        2.3980238341         1.7334276046         0.0264652189 
H        4.2217215101         0.9835328631         0.7512662436 
H        4.1308608612         2.7708217129         0.6200508009 
H        1.9586797038         1.7471084442         0.9294679908 
C        0.2271845228         4.9252388409         0.1594297065 
H        0.5414881655         3.9745530240         0.6200508009 
H        0.6638457959         4.9815037317        -0.8460895000 
O       -1.1913488616         5.0119471323         0.0264652189 
H        0.6323488144         5.7618418739         0.7512662436 
H       -1.6306929919         4.9982662928         0.9294679908 
O        1.1913488616         1.7334276046         2.3483322777 
C       -0.2271845228         1.8201358960         2.4812967653 
H        1.6306929919         1.7471084442         3.2513350496 
H       -0.6638457959         1.7638710053         1.4757775588 
H       -0.6323488144         0.9835328631         3.0731333024 
H       -0.5414881655         2.7708217129         2.9419178597 
H       -4.2532184916        -1.7638710053        -0.8460895000 
C       -3.8165572185        -1.8201358960         0.1594297065 
H       -4.1308608612        -2.7708217129         0.6200508009 
O       -2.3980238341        -1.7334276046         0.0264652189 
H       -4.2217215101        -0.9835328631         0.7512662436 
H       -1.9586797038        -1.7471084442         0.9294679908 
H       -0.6638457959        -4.9815037317        -0.8460895000 
C       -0.2271845228        -4.9252388409         0.1594297065 
O        1.1913488616        -5.0119471323         0.0264652189 
H       -0.6323488144        -5.7618418739         0.7512662436 
H       -0.5414881655        -3.9745530240         0.6200508009 
H        1.6306929919        -4.9982662928         0.9294679908 
H       -3.0478845302        -3.9745530240        -1.7018162579 
C       -3.3621881729        -4.9252388409        -2.1624373523 
H       -2.9255268998        -4.9815037317        -3.1679565588 
O       -4.7807215573        -5.0119471323        -2.2954018399 
H       -2.9570238813        -5.7618418739        -1.5706008152 
H       -5.2200656876        -4.9982662928        -1.3923990680 
O       -1.1913488616        -1.7334276046        -2.2954018399 
C        0.2271845228        -1.8201358960        -2.1624373523 
H       -1.6306929919        -1.7471084442        -1.3923990680 
H        0.6638457959        -1.7638710053        -3.1679565588 
H        0.5414881655        -2.7708217129        -1.7018162579 
H        0.6323488144        -0.9835328631        -1.5706008152 
H       -1.9586797038        -1.7471084442        -3.7142661268 
O       -2.3980238341        -1.7334276046        -4.6172688987 
C       -3.8165572185        -1.8201358960        -4.4843044111 
H       -4.1308608612        -2.7708217129        -4.0236833167 
H       -4.2532184916        -1.7638710053        -5.4898236176 
H       -4.2217215101        -0.9835328631        -3.8924678740 
O       -1.1913488616        -1.7334276046         2.3483322777 
C        0.2271845228        -1.8201358960         2.4812967653 
H       -1.6306929919        -1.7471084442         3.2513350496 
H        0.6638457959        -1.7638710053         1.4757775588 
H        0.5414881655        -2.7708217129         2.9419178597 
H        0.6323488144        -0.9835328631         3.0731333024 
C       -0.2271845228         1.8201358960        -2.1624373523 
H       -0.6638457959         1.7638710053        -3.1679565588 
O        1.1913488616         1.7334276046        -2.2954018399 
H       -0.6323488144         0.9835328631        -1.5706008152 
H       -0.5414881655         2.7708217129        -1.7018162579 
H        1.6306929919         1.7471084442        -1.3923990680 
H       -2.9255268998         1.7638710053        -0.8460895000 
C       -3.3621881729         1.8201358960         0.1594297065 
O       -4.7807215573         1.7334276046         0.0264652189 
H       -2.9570238813         0.9835328631         0.7512662436 
H       -3.0478845302         2.7708217129         0.6200508009 
H       -5.2200656876         1.7471084442         0.9294679908 
H       -2.9570238813         0.9835328631        -3.8924678740 
C       -3.3621881729         1.8201358960        -4.4843044111 
H       -2.9255268998         1.7638710053        -5.4898236176 
O       -4.7807215573         1.7334276046        -4.6172688987 
H       -3.0478845302         2.7708217129        -4.0236833167 
H       -5.2200656876         1.7471084442        -3.7142661268 
H       -2.9255268998         1.7638710053         3.7976446176 
C       -3.3621881729         1.8201358960         4.8031638241 
O       -4.7807215573         1.7334276046         4.6701993365 
H       -2.9570238813         0.9835328631         5.3950003612 
H       -3.0478845302         2.7708217129         5.2637849185 
H       -5.2200656876         1.7471084442         5.5732021084 
H        2.9255268998        -1.7638710053        -0.8460895000 
C        3.3621881729        -1.8201358960         0.1594297065 
H        3.0478845302        -2.7708217129         0.6200508009 
O        4.7807215573        -1.7334276046         0.0264652189 
H        2.9570238813        -0.9835328631         0.7512662436 
H        5.2200656876        -1.7471084442         0.9294679908 
H        2.9570238813        -0.9835328631        -3.8924678740 
C        3.3621881729        -1.8201358960        -4.4843044111 
H        3.0478845302        -2.7708217129        -4.0236833167 
H        2.9255268998        -1.7638710053        -5.4898236176 
O        4.7807215573        -1.7334276046        -4.6172688987 
H        5.2200656876        -1.7471084442        -3.7142661268 
H        2.9255268998        -1.7638710053         3.7976446176 
C        3.3621881729        -1.8201358960         4.8031638241 
H        3.0478845302        -2.7708217129         5.2637849185 
O        4.7807215573        -1.7334276046         4.6701993365 
H        2.9570238813        -0.9835328631         5.3950003612 
H        5.2200656876        -1.7471084442         5.5732021084 
H        3.0478845302         3.9745530240        -1.7018162579 
C        3.3621881729         4.9252388409        -2.1624373523 
H        2.9255268998         4.9815037317        -3.1679565588 
O        4.7807215573         5.0119471323        -2.2954018399 
H        2.9570238813         5.7618418739        -1.5706008152 
H        5.2200656876         4.9982662928        -1.3923990680 
H        1.9586797038         1.7471084442        -3.7142661268 
O        2.3980238341         1.7334276046        -4.6172688987 
C        3.8165572185         1.8201358960        -4.4843044111 
H        4.2532184916         1.7638710053        -5.4898236176 
H        4.2217215101         0.9835328631        -3.8924678740 
H        4.1308608612         2.7708217129        -4.0236833167 
