          96

C        0.9619420372         1.4214604217         1.8270179926 
H        0.6136001905         2.4291371816         2.0906705374 
H        1.4645359725         0.9817640093         2.7058792099 
O        1.8735283466         1.5305405635         0.7271688747 
H        0.0912028882         0.8032241953         1.5648671664 
H        1.8411906018         0.6733152737         0.1910681560 
H        0.4993994171         0.2682973108         4.8836050331 
C        0.1510575704        -0.7393794491         5.1472575779 
H        1.0217967194        -1.3576156756         5.4094084041 
O       -0.7605287390        -0.6302993073         6.2471066958 
H       -0.3515363649        -1.1790758616         4.2683963606 
H       -0.7281909942        -1.4875245972         6.7832074145 
H        4.1616232389         0.2682973108         2.0906705374 
C        4.5099650857        -0.7393794491         1.8270179926 
H        5.0125590209        -1.1790758616         2.7058792099 
O        5.4215513950        -0.6302993073         0.7271688747 
H        3.6392259366        -1.3576156756         1.5648671664 
H        5.3892136502        -1.4875245972         0.1910681560 
H        3.6392259366         2.9640640661         1.5648671664 
C        4.5099650857         3.5823002926         1.8270179926 
H        5.0125590209         3.1426038801         2.7058792099 
H        4.1616232389         4.5899770525         2.0906705374 
O        5.4215513950         3.6913804344         0.7271688747 
H        5.3892136502         2.8341551445         0.1910681560 
C       -0.9619420372        -2.9002193200        -1.8270179926 
H       -0.6136001905        -1.8925425601        -2.0906705374 
O       -1.8735283466        -2.7911391782        -0.7271688747 
H       -0.0912028882        -3.5184555464        -1.5648671664 
H       -1.4645359725        -3.3399157324        -2.7058792099 
H       -1.8411906018        -3.6483644680        -0.1910681560 
C       -4.5099650857        -0.7393794491        -1.8270179926 
H       -3.6392259366        -1.3576156756        -1.5648671664 
H       -4.1616232389         0.2682973108        -2.0906705374 
O       -5.4215513950        -0.6302993073        -0.7271688747 
H       -5.0125590209        -1.1790758616        -2.7058792099 
H       -5.3892136502        -1.4875245972        -0.1910681560 
C       -0.1510575704        -0.7393794491        -5.1472575779 
H        0.3515363649        -1.1790758616        -4.2683963606 
H       -0.4993994171         0.2682973108        -4.8836050331 
O        0.7605287390        -0.6302993073        -6.2471066958 
H       -1.0217967194        -1.3576156756        -5.4094084041 
H        0.7281909942        -1.4875245972        -6.7832074145 
C       -2.5860810112        -0.7393794491         1.8270179926 
H       -2.0834870760        -1.1790758616         2.7058792099 
H       -2.9344228580         0.2682973108         2.0906705374 
O       -1.6744947019        -0.6302993073         0.7271688747 
H       -3.4568201603        -1.3576156756         1.5648671664 
H       -1.7068324467        -1.4875245972         0.1910681560 
C       -0.9619420372         1.4214604217        -1.8270179926 
H       -0.6136001905         2.4291371816        -2.0906705374 
O       -1.8735283466         1.5305405635        -0.7271688747 
H       -0.0912028882         0.8032241953        -1.5648671664 
H       -1.4645359725         0.9817640093        -2.7058792099 
H       -1.8411906018         0.6733152737        -0.1910681560 
H       -3.6392259366         2.9640640661        -1.5648671664 
C       -4.5099650857         3.5823002926        -1.8270179926 
H       -4.1616232389         4.5899770525        -2.0906705374 
O       -5.4215513950         3.6913804344        -0.7271688747 
H       -5.0125590209         3.1426038801        -2.7058792099 
H       -5.3892136502         2.8341551445        -0.1910681560 
C       -2.5860810112         3.5823002926         1.8270179926 
H       -2.0834870760         3.1426038801         2.7058792099 
H       -2.9344228580         4.5899770525         2.0906705374 
O       -1.6744947019         3.6913804344         0.7271688747 
H       -3.4568201603         2.9640640661         1.5648671664 
H       -1.7068324467         2.8341551445         0.1910681560 
C        2.5860810112        -0.7393794491        -1.8270179926 
H        3.4568201603        -1.3576156756        -1.5648671664 
H        2.9344228580         0.2682973108        -2.0906705374 
O        1.6744947019        -0.6302993073        -0.7271688747 
H        2.0834870760        -1.1790758616        -2.7058792099 
H        1.7068324467        -1.4875245972        -0.1910681560 
C        0.9619420372        -2.9002193200         1.8270179926 
H        0.6136001905        -1.8925425601         2.0906705374 
H        1.4645359725        -3.3399157324         2.7058792099 
O        1.8735283466        -2.7911391782         0.7271688747 
H        0.0912028882        -3.5184555464         1.5648671664 
H        1.8411906018        -3.6483644680         0.1910681560 
C        2.5860810112         3.5823002926        -1.8270179926 
H        3.4568201603         2.9640640661        -1.5648671664 
H        2.9344228580         4.5899770525        -2.0906705374 
O        1.6744947019         3.6913804344        -0.7271688747 
H        2.0834870760         3.1426038801        -2.7058792099 
H        1.7068324467         2.8341551445        -0.1910681560 
O       -1.6744947019        -4.9519790490         0.7271688747 
H       -1.7068324467        -5.8092043389         0.1910681560 
C       -2.5860810112        -5.0610591908         1.8270179926 
H       -2.0834870760        -5.5007556033         2.7058792099 
H       -2.9344228580        -4.0533824309         2.0906705374 
H       -3.4568201603        -5.6792954173         1.5648671664 
O        1.6744947019        -4.9519790490        -0.7271688747 
H        1.7068324467        -5.8092043389        -0.1910681560 
C        2.5860810112        -5.0610591908        -1.8270179926 
H        3.4568201603        -5.6792954173        -1.5648671664 
H        2.9344228580        -4.0533824309        -2.0906705374 
H        2.0834870760        -5.5007556033        -2.7058792099 
