         132

C        0.0000000000         1.7421231270         4.4119150078 
H        0.8970641133         1.4014162830         4.9596151368 
H       -0.8970641133         1.4014162830         4.9596151368 
H        0.0000000000         1.2613290814         3.4237509687 
O        0.0000000000         3.1448279535         4.2243181030 
H        0.0000000000         3.6049482427         5.1180783371 
C        3.2983390355         1.7421231270         2.6082439301 
H        2.4012749222         1.4014162830         2.0605438011 
H        4.1954031489         1.4014162830         2.0605438011 
H        3.2983390355         1.2613290814         3.5964079692 
O        3.2983390355         3.1448279535         2.7958408349 
H        3.2983390355         3.6049482427         1.9020806008 
H        0.8970641133         1.4014162830         0.2795091782 
C        0.0000000000         1.7421231270        -0.2681909508 
H       -0.8970641133         1.4014162830         0.2795091782 
H        0.0000000000         1.2613290814        -1.2563549899 
O        0.0000000000         3.1448279535        -0.4557878556 
H        0.0000000000         3.6049482427         0.4379723785 
O        0.0000000000         4.3085188286         1.8842651237 
C        0.0000000000         5.7112236551         2.0718620285 
H        0.0000000000         3.8483985394         2.7780253578 
H        0.0000000000         6.1920177007         1.0836979894 
H       -0.8970641133         6.0519304992         2.6195621575 
H        0.8970641133         6.0519304992         2.6195621575 
C       -3.2983390355        -1.7421231270        -2.6082439301 
O       -3.2983390355        -3.1448279535        -2.7958408349 
H       -3.2983390355        -1.2613290814        -3.5964079692 
H       -4.1954031489        -1.4014162830        -2.0605438011 
H       -2.4012749222        -1.4014162830        -2.0605438011 
H       -3.2983390355        -3.6049482427        -1.9020806008 
H       -0.8970641133        -1.4014162830        -0.2795091782 
C       -0.0000000000        -1.7421231270         0.2681909508 
O       -0.0000000000        -3.1448279535         0.4557878556 
H        0.8970641133        -1.4014162830        -0.2795091782 
H       -0.0000000000        -1.2613290814         1.2563549899 
H       -0.0000000000        -3.6049482427        -0.4379723785 
C       -3.2983390355        -1.7421231270         2.0718620285 
O       -3.2983390355        -3.1448279535         1.8842651237 
H       -3.2983390355        -1.2613290814         1.0836979894 
H       -4.1954031489        -1.4014162830         2.6195621575 
H       -2.4012749222        -1.4014162830         2.6195621575 
H       -3.2983390355        -3.6049482427         2.7780253578 
H       -0.8970641133        -1.4014162830         4.4005967804 
C        0.0000000000        -1.7421231270         4.9482969094 
O        0.0000000000        -3.1448279535         5.1358938142 
H        0.8970641133        -1.4014162830         4.4005967804 
H        0.0000000000        -1.2613290814         5.9364609485 
H        0.0000000000        -3.6049482427         4.2421335801 
H       -3.2983390356        -3.8483985394         0.4379723785 
O       -3.2983390356        -4.3085188286        -0.4557878556 
C       -3.2983390356        -5.7112236551        -0.2681909508 
H       -2.4012749222        -6.0519304992         0.2795091782 
H       -4.1954031489        -6.0519304992         0.2795091782 
H       -3.2983390356        -6.1920177007        -1.2563549899 
C       -3.2983390355         1.7421231270        -2.0718620285 
H       -4.1954031489         1.4014162830        -2.6195621575 
H       -2.4012749222         1.4014162830        -2.6195621575 
H       -3.2983390355         1.2613290814        -1.0836979894 
O       -3.2983390355         3.1448279535        -1.8842651237 
H       -3.2983390355         3.6049482427        -2.7780253578 
H       -0.8970641133         1.4014162830        -4.4005967804 
C       -0.0000000000         1.7421231270        -4.9482969094 
H        0.8970641133         1.4014162830        -4.4005967804 
H       -0.0000000000         1.2613290814        -5.9364609485 
O       -0.0000000000         3.1448279535        -5.1358938142 
H       -0.0000000000         3.6049482427        -4.2421335801 
H       -3.2983390355         3.8483985394        -0.4379723785 
O       -3.2983390355         4.3085188286         0.4557878556 
C       -3.2983390355         5.7112236551         0.2681909508 
H       -2.4012749222         6.0519304992        -0.2795091782 
H       -4.1954031489         6.0519304992        -0.2795091782 
H       -3.2983390355         6.1920177007         1.2563549899 
C       -3.2983390355         1.7421231270         2.6082439301 
H       -4.1954031489         1.4014162830         2.0605438011 
H       -2.4012749222         1.4014162830         2.0605438011 
H       -3.2983390355         1.2613290814         3.5964079692 
O       -3.2983390355         3.1448279535         2.7958408349 
H       -3.2983390355         3.6049482427         1.9020806008 
C        3.2983390355        -1.7421231270        -2.6082439301 
O        3.2983390355        -3.1448279535        -2.7958408349 
H        3.2983390355        -1.2613290814        -3.5964079692 
H        2.4012749222        -1.4014162830        -2.0605438011 
H        4.1954031489        -1.4014162830        -2.0605438011 
H        3.2983390355        -3.6049482427        -1.9020806008 
C       -0.0000000000        -1.7421231270        -4.4119150078 
O       -0.0000000000        -3.1448279535        -4.2243181030 
H       -0.8970641133        -1.4014162830        -4.9596151368 
H        0.8970641133        -1.4014162830        -4.9596151368 
H       -0.0000000000        -1.2613290814        -3.4237509687 
H       -0.0000000000        -3.6049482427        -5.1180783371 
O       -0.0000000000        -4.3085188286        -1.8842651237 
H       -0.0000000000        -3.8483985394        -2.7780253578 
C       -0.0000000000        -5.7112236551        -2.0718620285 
H        0.8970641133        -6.0519304992        -2.6195621575 
H       -0.8970641133        -6.0519304992        -2.6195621575 
H       -0.0000000000        -6.1920177007        -1.0836979894 
C        3.2983390355        -1.7421231270         2.0718620285 
O        3.2983390355        -3.1448279535         1.8842651237 
H        3.2983390355        -1.2613290814         1.0836979894 
H        2.4012749222        -1.4014162830         2.6195621575 
H        4.1954031489        -1.4014162830         2.6195621575 
H        3.2983390355        -3.6049482427         2.7780253578 
O       -0.0000000000        -4.3085188286         2.7958408349 
H       -0.0000000000        -3.8483985394         1.9020806008 
C       -0.0000000000        -5.7112236551         2.6082439301 
H        0.8970641133        -6.0519304992         2.0605438011 
H       -0.8970641133        -6.0519304992         2.0605438011 
H       -0.0000000000        -6.1920177007         3.5964079692 
H        3.2983390355        -3.8483985394         0.4379723785 
O        3.2983390355        -4.3085188286        -0.4557878556 
C        3.2983390355        -5.7112236551        -0.2681909508 
H        4.1954031489        -6.0519304992         0.2795091782 
H        2.4012749222        -6.0519304992         0.2795091782 
H        3.2983390355        -6.1920177007        -1.2563549899 
C        3.2983390355         1.7421231270        -2.0718620285 
H        2.4012749222         1.4014162830        -2.6195621575 
H        4.1954031489         1.4014162830        -2.6195621575 
H        3.2983390355         1.2613290814        -1.0836979894 
O        3.2983390355         3.1448279535        -1.8842651237 
H        3.2983390355         3.6049482427        -2.7780253578 
O        0.0000000000         4.3085188286        -2.7958408349 
C        0.0000000000         5.7112236551        -2.6082439301 
H        0.0000000000         3.8483985394        -1.9020806008 
H        0.0000000000         6.1920177007        -3.5964079692 
H       -0.8970641133         6.0519304992        -2.0605438011 
H        0.8970641133         6.0519304992        -2.0605438011 
H        3.2983390356         3.8483985394        -0.4379723785 
O        3.2983390356         4.3085188286         0.4557878556 
C        3.2983390356         5.7112236551         0.2681909508 
H        4.1954031489         6.0519304992        -0.2795091782 
H        2.4012749222         6.0519304992        -0.2795091782 
H        3.2983390356         6.1920177007         1.2563549899 
