         108

H        3.5612435573         0.7232941577         1.7041487941 
C        3.4708557574        -0.3089823827         1.3444097740 
O        4.4961471457        -1.1027283335         1.9641710089 
H        2.4638814978        -0.6822744263         1.5892594051 
H        3.5944997959        -0.3029390217         0.2514841222 
H        4.2628420766        -2.0704503497         1.8294946857 
H        2.7693952358         2.9561687707         2.8902000398 
O        2.5298969693         3.1007293670         1.9226535453 
C        1.1307658339         2.8188518522         1.7674905062 
H        0.8381697210         3.0691925843         0.7407335269 
H        0.5168199631         3.4184429887         2.4573026362 
H        0.9222868544         1.7523254120         1.9459640631 
H       -3.5612435573        -0.7232941577        -1.7041487941 
C       -3.4708557574         0.3089823827        -1.3444097740 
O       -4.4961471457         1.1027283335        -1.9641710089 
H       -2.4638814978         0.6822744263        -1.5892594051 
H       -3.5944997959         0.3029390217        -0.2514841222 
H       -4.2628420766         2.0704503497        -1.8294946857 
H       -2.7693952358        -2.9561687707        -2.8902000398 
O       -2.5298969693        -3.1007293670        -1.9226535453 
C       -1.1307658339        -2.8188518522        -1.7674905062 
H       -0.9222868544        -1.7523254120        -1.9459640631 
H       -0.5168199631        -3.4184429887        -2.4573026362 
H       -0.8381697210        -3.0691925843        -0.7407335269 
C       -1.2864986099        -0.3089823827         1.3444097740 
H       -1.1961108100         0.7232941577         1.7041487941 
O       -0.2612072216        -1.1027283335         1.9641710089 
H       -2.2934728695        -0.6822744263         1.5892594051 
H       -1.1628545714        -0.3029390217         0.2514841222 
H       -0.4945122907        -2.0704503497         1.8294946857 
H       -0.6894453394        -3.8376367066         2.8902000398 
O       -0.9289436059        -3.6930761102         1.9226535453 
C       -2.3280747412        -3.9749536251         1.7674905062 
H       -2.6206708542        -3.7246128929         0.7407335269 
H       -2.9420206121        -3.3753624886         2.4573026362 
H       -2.5365537208        -5.0414800652         1.9459640631 
H       -2.4342320571        -1.4937535726         4.0150199764 
C       -3.0481779280        -0.8941624361         4.7048321064 
H       -2.8396989484         0.1723640040         4.5263585495 
H       -2.7555818150        -1.1445031683         5.7315890858 
O       -4.4473090633        -1.1760399510         4.5496690673 
H       -4.6868073298        -1.0314793546         3.5821225729 
H        0.7213012840        -1.2013952584        -4.7681738185 
C        0.6309134842        -2.2336717988        -5.1279128386 
O        1.6562048725        -3.0274177496        -4.5081516038 
H       -0.3760607755        -2.6069638423        -4.8830632076 
H        0.7545575226        -2.2276284378        -6.2208384904 
H        1.4228998033        -3.9951397658        -4.6428279270 
H       -0.0705470375         1.0314793546        -3.5821225729 
O       -0.3100453040         1.1760399510        -4.5496690673 
C       -1.7091764393         0.8941624361        -4.7048321064 
H       -2.0017725523         1.1445031683        -5.7315890858 
H       -2.3231223102         1.4937535726        -4.0150199764 
H       -1.9176554189        -0.1723640040        -4.5263585495 
C       -2.4292796261         3.9749536251        -1.7674905062 
H       -2.2208006465         5.0414800652        -1.9459640631 
H       -1.8153337552         3.3753624886        -2.4573026362 
H       -2.1366835131         3.7246128929        -0.7407335269 
O       -3.8284107614         3.6930761102        -1.9226535453 
H       -4.0679090279         3.8376367066        -2.8902000398 
H       -1.9879591315         2.9561687707         2.8902000398 
O       -2.2274573980         3.1007293670         1.9226535453 
C       -3.6265885334         2.8188518522         1.7674905062 
H       -3.9191846463         3.0691925843         0.7407335269 
H       -4.2405344042         3.4184429887         2.4573026362 
H       -3.8350675129         1.7523254120         1.9459640631 
H        1.1961108100        -0.7232941577        -1.7041487941 
C        1.2864986099         0.3089823827        -1.3444097740 
O        0.2612072216         1.1027283335        -1.9641710089 
H        2.2934728695         0.6822744263        -1.5892594051 
H        1.1628545714         0.3029390217        -0.2514841222 
H        0.4945122907         2.0704503497        -1.8294946857 
H        1.9879591315        -2.9561687707        -2.8902000398 
O        2.2274573980        -3.1007293670        -1.9226535453 
C        3.6265885334        -2.8188518522        -1.7674905062 
H        3.8350675129        -1.7523254120        -1.9459640631 
H        4.2405344042        -3.4184429887        -2.4573026362 
H        3.9191846463        -3.0691925843        -0.7407335269 
H       -0.7213012840         1.2013952584         4.7681738185 
C       -0.6309134842         2.2336717988         5.1279128386 
O       -1.6562048725         3.0274177496         4.5081516038 
H        0.3760607755         2.6069638423         4.8830632076 
H       -0.7545575226         2.2276284378         6.2208384904 
H       -1.4228998033         3.9951397658         4.6428279270 
H        0.0705470375        -1.0314793546         3.5821225729 
O        0.3100453040        -1.1760399510         4.5496690673 
C        1.7091764393        -0.8941624361         4.7048321064 
H        1.9176554189         0.1723640040         4.5263585495 
H        2.3231223102        -1.4937535726         4.0150199764 
H        2.0017725523        -1.1445031683         5.7315890858 
C        2.4292796261        -3.9749536251         1.7674905062 
O        3.8284107614        -3.6930761102         1.9226535453 
H        2.1366835131        -3.7246128929         0.7407335269 
H        1.8153337552        -3.3753624886         2.4573026362 
H        2.2208006465        -5.0414800652         1.9459640631 
H        4.0679090279        -3.8376367066         2.8902000398 
H        0.6894453394         3.8376367066        -2.8902000398 
O        0.9289436059         3.6930761102        -1.9226535453 
C        2.3280747412         3.9749536251        -1.7674905062 
H        2.5365537208         5.0414800652        -1.9459640631 
H        2.9420206121         3.3753624886        -2.4573026362 
H        2.6206708542         3.7246128929        -0.7407335269 
H        2.4342320571         1.4937535726        -4.0150199764 
C        3.0481779280         0.8941624361        -4.7048321064 
O        4.4473090633         1.1760399510        -4.5496690673 
H        2.7555818150         1.1445031683        -5.7315890858 
H        2.8396989484        -0.1723640040        -4.5263585495 
H        4.6868073298         1.0314793546        -3.5821225729 
