         108

C        1.6023623983         2.8942758947         2.3385413595 
O        0.7042159183         3.9909474116         2.1487829767 
H        1.9219646881         2.5237996954         1.3567906318 
H        1.1214888649         2.0609378986         2.8759476191 
H        2.4960167113         3.2066214654         2.9037463795 
H        0.1688809322         4.1212127340         2.9983245227 
O        3.9544877914         0.1106430119         3.2373025463 
H        3.4191528052        -0.0196223105         4.0868440923 
C        4.8526342714         1.2073145288         3.4270609290 
H        4.3717607380         2.0406525250         3.9644671887 
H        5.1722365612         1.5777907281         2.4453102013 
H        5.7462885844         0.8949689582         3.9922659490 
H        3.0813909409         0.0196223105         1.9098049532 
O        2.5460559547        -0.1106430119         1.0602634072 
C        1.6479094747        -1.2073145288         1.2500217899 
H        2.1287830081        -2.0406525250         1.7874280496 
H        1.3283071849        -1.5777907281         0.2682710622 
H        0.7542551617        -0.8949689582         1.8152268099 
C       -1.6023623983        -2.8942758947        -2.0155369187 
O       -0.7042159183        -3.9909474116        -2.2052953015 
H       -1.9219646881        -2.5237996954        -2.9972876464 
H       -2.4960167113        -3.2066214654        -1.4503318987 
H       -1.1214888649        -2.0609378986        -1.4781306591 
H       -0.1688809322        -4.1212127340        -1.3557537555 
C       -4.8526342714        -1.2073145288        -0.9270173492 
H       -5.7462885844        -0.8949689582        -0.3618123292 
O       -3.9544877914        -0.1106430119        -1.1167757319 
H       -4.3717607380        -2.0406525250        -0.3896110895 
H       -5.1722365612        -1.5777907281        -1.9087680769 
H       -3.4191528052         0.0196223105        -0.2672341859 
H       -3.0813909409        -0.0196223105        -2.4442733250 
O       -2.5460559547         0.1106430119        -3.2938148710 
C       -1.6479094747         1.2073145288        -3.1040564883 
H       -2.1287830081         2.0406525250        -2.5666502286 
H       -1.3283071849         1.5777907281        -4.0858072160 
H       -0.7542551617         0.8949689582        -2.5388514683 
C       -1.6023623983        -2.8942758947         2.3385413595 
O       -0.7042159183        -3.9909474116         2.1487829767 
H       -1.9219646881        -2.5237996954         1.3567906318 
H       -2.4960167113        -3.2066214654         2.9037463795 
H       -1.1214888649        -2.0609378986         2.8759476191 
H       -0.1688809322        -4.1212127340         2.9983245227 
O       -3.9544877914        -0.1106430119         3.2373025463 
H       -3.4191528052         0.0196223105         4.0868440923 
C       -4.8526342714        -1.2073145288         3.4270609290 
H       -5.7462885844        -0.8949689582         3.9922659490 
H       -4.3717607380        -2.0406525250         3.9644671887 
H       -5.1722365612        -1.5777907281         2.4453102013 
H       -3.0813909409        -0.0196223105         1.9098049532 
O       -2.5460559547         0.1106430119         1.0602634072 
C       -1.6479094747         1.2073145288         1.2500217899 
H       -2.1287830081         2.0406525250         1.7874280496 
H       -1.3283071849         1.5777907281         0.2682710622 
H       -0.7542551617         0.8949689582         1.8152268099 
O       -0.7042159183         4.2122334355        -0.0282561624 
H       -0.1688809322         4.0819681131         0.8212853836 
C       -1.6023623983         5.3089049524         0.1615022204 
H       -1.9219646881         5.6793811517        -0.8202485073 
H       -1.1214888649         6.1422429486         0.6989084800 
H       -2.4960167113         4.9965593817         0.7267072404 
H       -4.0045270348         3.2066214654         0.7267072404 
C       -4.8981813478         2.8942758947         0.1615022204 
H       -5.3790548812         2.0609378986         0.6989084800 
O       -5.7963278278         3.9909474116        -0.0282561624 
H       -4.5785790580         2.5237996954        -0.8202485073 
H       -6.3316628139         4.1212127340         0.8212853836 
H       -1.3283071849         1.5777907281         4.6223493404 
C       -1.6479094747         1.2073145288         5.6041000681 
O       -2.5460559547         0.1106430119         5.4143416854 
H       -2.1287830081         2.0406525250         6.1415063278 
H       -0.7542551617         0.8949689582         6.1693050881 
H       -3.0813909409        -0.0196223105         6.2638832314 
C        1.6479094747        -1.2073145288        -3.1040564883 
O        2.5460559547        -0.1106430119        -3.2938148710 
H        2.1287830081        -2.0406525250        -2.5666502286 
H        1.3283071849        -1.5777907281        -4.0858072160 
H        0.7542551617        -0.8949689582        -2.5388514683 
H        3.0813909409         0.0196223105        -2.4442733250 
O        0.7042159183        -4.2122334355        -0.0282561624 
C        1.6023623983        -5.3089049524         0.1615022204 
H        0.1688809322        -4.0819681131         0.8212853836 
H        1.9219646881        -5.6793811517        -0.8202485073 
H        1.1214888649        -6.1422429486         0.6989084800 
H        2.4960167113        -4.9965593817         0.7267072404 
H        3.4191528052        -0.0196223105        -0.2672341859 
O        3.9544877914         0.1106430119        -1.1167757319 
C        4.8526342714         1.2073145288        -0.9270173492 
H        4.3717607380         2.0406525250        -0.3896110895 
H        5.1722365612         1.5777907281        -1.9087680769 
H        5.7462885844         0.8949689582        -0.3618123292 
H        4.0045270348        -3.2066214654         0.7267072404 
C        4.8981813478        -2.8942758947         0.1615022204 
H        4.5785790580        -2.5237996954        -0.8202485073 
O        5.7963278278        -3.9909474116        -0.0282561624 
H        5.3790548812        -2.0609378986         0.6989084800 
H        6.3316628139        -4.1212127340         0.8212853836 
H        1.3283071849        -1.5777907281         4.6223493404 
C        1.6479094747        -1.2073145288         5.6041000681 
O        2.5460559547        -0.1106430119         5.4143416854 
H        2.1287830081        -2.0406525250         6.1415063278 
H        0.7542551617        -0.8949689582         6.1693050881 
H        3.0813909409         0.0196223105         6.2638832314 
C        1.6023623983         2.8942758947        -2.0155369187 
O        0.7042159183         3.9909474116        -2.2052953015 
H        1.9219646881         2.5237996954        -2.9972876464 
H        1.1214888649         2.0609378986        -1.4781306591 
H        2.4960167113         3.2066214654        -1.4503318987 
H        0.1688809322         4.1212127340        -1.3557537555 
