         108

C        3.2509147058         0.4206961136         0.3890092410 
O        2.0004194169        -0.2721981562         0.2863080179 
H        3.9216126966         0.1525701073        -0.4421051891 
H        3.7327430439         0.1229707687         1.3293483707 
H        3.1060925280         1.5148140220         0.3916757365 
H        1.5077016260         0.0752218882        -0.5243121767 
O        1.9740186081         0.2721981562         4.5932787963 
C        3.2245138970        -0.4206961136         4.6959800194 
H        1.4813008172        -0.0752218882         3.7826586017 
H        3.7063422351        -0.1229707687         5.6363191491 
H        3.8952118878        -0.1525701073         3.8648655893 
H        3.0796917192        -1.5148140220         4.6986465149 
O        2.0004194169         4.4174888746         0.2863080179 
C        3.2509147058         5.1103831444         0.3890092410 
H        1.5077016260         4.7649089190        -0.5243121767 
H        3.9216126966         4.8422571381        -0.4421051891 
H        3.7327430439         4.8126577995         1.3293483707 
H        3.1060925280         6.2045010528         0.3916757365 
H        1.1629351432         4.2331447781         1.6260493580 
O        0.6907793674         4.0355661029         2.4995809355 
C        0.4259903518         2.6281022731         2.5486456529 
H       -0.4646915978         2.3707166172         1.9536213414 
H        1.2824714008         2.0468067735         2.1786892344 
H        0.2427073326         2.3440424756         3.5921628244 
C       -2.0465772310        -0.4206961136        -3.9179615374 
H       -1.5647488930        -0.1229707687        -2.9776224077 
H       -1.3758792403        -0.1525701073        -4.7490759675 
O       -3.2970725200         0.2721981562        -4.0206627605 
H       -2.1913994089        -1.5148140220        -3.9152950419 
H       -3.7897903108        -0.0752218882        -4.8312829551 
H       -1.4022800491        -4.5371169235        -0.4421051891 
C       -2.0729780399        -4.2689909172         0.3890092410 
O       -3.3234733288        -4.9618851870         0.2863080179 
H       -1.5911497018        -4.5667162621         1.3293483707 
H       -2.2178002177        -3.1748730088         0.3916757365 
H       -3.8161911197        -4.6144651426        -0.5243121767 
H       -0.4382907890        -2.3707166172        -2.3533494370 
C        0.4523911606        -2.6281022731        -1.7583251255 
H        1.3088722096        -2.0468067735        -2.1282815441 
H        0.2691081414        -2.3440424756        -0.7148079540 
O        0.7171801762        -4.0355661029        -1.8073898429 
H        1.1893359521        -4.2331447781        -2.6809214204 
H       -4.0150205361        -2.0468067735        -2.1282815441 
C       -4.8715015851        -2.6281022731        -1.7583251255 
H       -5.0547846043        -2.3440424756        -0.7148079540 
H       -5.7621835347        -2.3707166172        -2.3533494370 
O       -4.6067125695        -4.0355661029        -1.8073898429 
H       -4.1345567936        -4.2331447781        -2.6809214204 
C       -2.0993788487        -0.4206961136         4.6959800194 
H       -1.6175505106        -0.1229707687         5.6363191491 
H       -1.4286808579        -0.1525701073         3.8648655893 
O       -3.3498741376         0.2721981562         4.5932787963 
H       -2.2442010265        -1.5148140220         4.6986465149 
H       -3.8425919285        -0.0752218882         3.7826586017 
O       -3.3234733288        -0.2721981562         0.2863080179 
C       -2.0729780399         0.4206961136         0.3890092410 
H       -3.8161911197         0.0752218882        -0.5243121767 
H       -1.4022800491         0.1525701073        -0.4421051891 
H       -1.5911497018         0.1229707687         1.3293483707 
H       -2.2178002177         1.5148140220         0.3916757365 
H       -4.1609576025        -0.4565422527         1.6260493580 
O       -4.6331133783        -0.6541209279         2.4995809355 
C       -4.8979023939        -2.0615847577         2.5486456529 
H       -5.7885843435        -2.3189704136         1.9536213414 
H       -4.0414213449        -2.6428802573         2.1786892344 
H       -5.0811854131        -2.3456445552         3.5921628244 
H       -0.4646915978        -2.3189704136         1.9536213414 
C        0.4259903518        -2.0615847577         2.5486456529 
O        0.6907793674        -0.6541209279         2.4995809355 
H        1.2824714008        -2.6428802573         2.1786892344 
H        0.2427073326        -2.3456445552         3.5921628244 
H        1.1629351432        -0.4565422527         1.6260493580 
H       -4.1345567936         0.4565422527        -2.6809214204 
O       -4.6067125695         0.6541209279        -1.8073898429 
C       -4.8715015851         2.0615847577        -1.7583251255 
H       -4.0150205361         2.6428802573        -2.1282815441 
H       -5.0547846043         2.3456445552        -0.7148079540 
H       -5.7621835347         2.3189704136        -2.3533494370 
H       -0.4382907890         2.3189704136        -2.3533494370 
C        0.4523911606         2.0615847577        -1.7583251255 
H        1.3088722096         2.6428802573        -2.1282815441 
H        0.2691081414         2.3456445552        -0.7148079540 
O        0.7171801762         0.6541209279        -1.8073898429 
H        1.1893359521         0.4565422527        -2.6809214204 
H       -4.0414213449         2.0468067735         2.1786892344 
C       -4.8979023939         2.6281022731         2.5486456529 
H       -5.7885843435         2.3707166172         1.9536213414 
O       -4.6331133783         4.0355661029         2.4995809355 
H       -5.0811854131         2.3440424756         3.5921628244 
H       -4.1609576025         4.2331447781         1.6260493580 
H       -1.4022800491         4.8422571381        -0.4421051891 
C       -2.0729780399         5.1103831444         0.3890092410 
O       -3.3234733288         4.4174888746         0.2863080179 
H       -1.5911497018         4.8126577995         1.3293483707 
H       -2.2178002177         6.2045010528         0.3916757365 
H       -3.8161911197         4.7649089190        -0.5243121767 
C        3.2773155147        -0.4206961136        -3.9179615374 
H        3.7591438527        -0.1229707687        -2.9776224077 
H        3.9480135054        -0.1525701073        -4.7490759675 
O        2.0268202257         0.2721981562        -4.0206627605 
H        3.1324933368        -1.5148140220        -3.9152950419 
H        1.5341024349        -0.0752218882        -4.8312829551 
H        1.5077016260        -4.6144651426        -0.5243121767 
O        2.0004194169        -4.9618851870         0.2863080179 
C        3.2509147058        -4.2689909172         0.3890092410 
H        3.9216126966        -4.5371169235        -0.4421051891 
H        3.7327430439        -4.5667162621         1.3293483707 
H        3.1060925280        -3.1748730088         0.3916757365 
