         126

H        4.3801067769         1.7507054329         1.0064060905 
C        5.2343074631         1.8131891880         1.6924566530 
H        6.0862860542         1.2747044257         1.2465207336 
O        4.8283730669         1.2349833219         2.9428452056 
H        5.5062297964         2.8723278554         1.8154483570 
H        5.5830399323         1.3172758807         3.6132353039 
H        1.9643251330         0.3293031615         0.7623614517 
O        1.7207115482         1.3056080560         0.6451650329 
C        1.4051240216         1.8463424392         1.9385775916 
H        0.5612617257         1.3163725560         2.4094601034 
H        1.1288737450         2.8997931799         1.8086151428 
H        2.2795171559         1.7902846333         2.6046851577 
H       -4.3045335572        -1.2747044257        -0.7816953780 
C       -5.1565121483        -1.8131891880        -0.3357594587 
H       -6.0107128345        -1.7507054329        -1.0218100211 
H       -4.8845898149        -2.8723278554        -0.2127677546 
O       -5.5624465445        -1.2349833219         0.9146290940 
H       -4.8077796791        -1.3172758807         1.5850191922 
C       -1.1168336215        -1.8463424392        -0.0896385200 
H       -0.2424404873        -1.7902846333         0.5764690461 
H       -1.3930838982        -2.8997931799        -0.2196009688 
O       -0.8012460950        -1.3056080560        -1.3830510788 
H       -1.9606959175        -1.3163725560         0.3812439918 
H       -0.5576325101        -0.3293031615        -1.2658546599 
C        1.2998764790        -4.6760168536         1.6924566530 
H        2.1518550701        -5.2145016159         1.2465207336 
H        0.4456757928        -4.7385006087         1.0064060905 
O        0.8939420828        -5.2542227197         2.9428452056 
H        1.5717988123        -3.6168781862         1.8154483570 
H        1.6486089482        -5.1719301609         3.6132353039 
C       -0.1125968619        -1.8131891880         3.7206727646 
H        0.7393817291        -1.2747044257         3.2747368452 
H       -0.9667975481        -1.7507054329         3.0346222021 
H        0.1593254714        -2.8723278554         3.8436644686 
O       -0.5185312582        -1.2349833219         4.9710613173 
H        0.2361356073        -1.3172758807         5.6414514155 
H       -3.3825791920        -0.3293031615         2.7905775634 
O       -3.6261927769        -1.3056080560         2.6733811445 
C       -3.9417803034        -1.8463424392         3.9667937032 
H       -3.0673871691        -1.7902846333         4.6329012693 
H       -4.2180305801        -2.8997931799         3.8368312544 
H       -4.7856425993        -1.3163725560         4.4376762150 
H       -2.8055572391        -3.5894128617         1.8086151428 
C       -2.5293069625        -4.6428636024         1.9385775916 
O       -2.2137194359        -5.1835979856         0.6451650329 
H       -1.6549138282        -4.6989214083         2.6046851577 
H       -3.3731692584        -5.1728334856         2.4094601034 
H       -1.9701058511        -6.1599028801         0.7623614517 
C       -1.2220811642         4.6760168536        -0.3357594587 
H       -2.0762818504         4.7385006087        -1.0218100211 
H       -0.3701025731         5.2145016159        -0.7816953780 
H       -0.9501588308         3.6168781862        -0.2127677546 
O       -1.6280155604         5.2542227197         0.9146290940 
H       -0.8733486950         5.1719301609         1.5850191922 
C       -3.6387912647         1.8463424392        -2.1178546317 
H       -4.4826535606         1.3163725560        -1.6469721198 
H       -3.9150415414         2.8997931799        -2.2478170804 
O       -3.3232037382         1.3056080560        -3.4112671904 
H       -2.7643981305         1.7902846333        -1.4517470655 
H       -3.0795901533         0.3293031615        -3.2940707715 
C       -2.6345545051         1.8131891880         1.6924566530 
H       -1.7825759140         1.2747044257         1.2465207336 
H       -3.4887551913         1.7507054329         1.0064060905 
O       -3.0404889013         1.2349833219         2.9428452056 
H       -2.3626321718         2.8723278554         1.8154483570 
H       -2.2858220359         1.3172758807         3.6132353039 
H       -0.2835995960         3.5894128617         3.8368312544 
C       -0.0073493193         4.6428636024         3.9667937032 
O        0.3082382072         5.1835979856         2.6733811445 
H       -0.8512116152         5.1728334856         4.4376762150 
H        0.8670438150         4.6989214083         4.6329012693 
H        0.5518517921         6.1599028801         2.7905775634 
H       -0.8606215488         0.3293031615         4.8187936750 
O       -1.1042351337         1.3056080560         4.7015972561 
C       -1.4198226602         1.8463424392         5.9950098148 
H       -2.2636849562         1.3163725560         6.4658923267 
H       -1.6960729369         2.8997931799         5.8650473660 
H       -0.5454295260         1.7902846333         6.6611173809 
C        2.7123498199        -1.8131891880        -0.3357594587 
H        3.5643284110        -1.2747044257        -0.7816953780 
H        1.8581491337        -1.7507054329        -1.0218100211 
H        2.9842721533        -2.8723278554        -0.2127677546 
O        2.3064154237        -1.2349833219         0.9146290940 
H        3.0610822891        -1.3172758807         1.5850191922 
O       -2.7374998626        -1.2349833219        -3.1418031292 
C       -2.3315654664        -1.8131891880        -4.3921916819 
H       -1.9828329972        -1.3172758807        -2.4714130310 
H       -1.4795868754        -1.2747044257        -4.8381276013 
H       -3.1857661526        -1.7507054329        -5.0782422444 
H       -2.0596431331        -2.8723278554        -4.2691999778 
C        0.2956397194        -4.6428636024        -2.1178546317 
O        0.6112272459        -5.1835979856        -3.4112671904 
H        1.1700328536        -4.6989214083        -1.4517470655 
H       -0.5482225765        -5.1728334856        -1.6469721198 
H        0.0193894427        -3.5894128617        -2.2478170804 
H        0.8548408308        -6.1599028801        -3.2940707715 
H        0.8642507644        -1.3163725560        -3.6751882314 
C        1.7081130603        -1.8463424392        -4.1460707433 
H        2.5825061946        -1.7902846333        -3.4799631771 
H        1.4318627836        -2.8997931799        -4.2760331921 
O        2.0237005868        -1.3056080560        -5.4394833020 
H        2.2673141717        -0.3293031615        -5.3222868831 
O        4.2426691913        -1.3056080560         2.6733811445 
C        3.9270816648        -1.8463424392         3.9667937032 
H        4.4862827762        -0.3293031615         2.7905775634 
H        4.8014747991        -1.7902846333         4.6329012693 
H        3.6508313881        -2.8997931799         3.8368312544 
H        3.0832193689        -1.3163725560         4.4376762150 
C        0.1903921768         1.8131891880        -2.3639755703 
H        1.0423707678         1.2747044257        -2.8099114896 
H       -0.6638085095         1.7507054329        -3.0500261327 
O       -0.2155422195         1.2349833219        -1.1135870176 
H        0.4623145101         2.8723278554        -2.2409838662 
H        0.5391246459         1.3172758807        -0.4431969194 
C        4.2300707035         1.8463424392        -2.1178546317 
H        3.3862084076         1.3163725560        -1.6469721198 
H        3.9538204268         2.8997931799        -2.2478170804 
O        4.5456582300         1.3056080560        -3.4112671904 
H        5.1044638377         1.7902846333        -1.4517470655 
H        4.7892718149         0.3293031615        -3.2940707715 
H        2.5413470859         3.5894128617        -0.2196009688 
C        2.8175973626         4.6428636024        -0.0896385200 
O        3.1331848891         5.1835979856        -1.3830510788 
H        1.9737350666         5.1728334856         0.3812439918 
H        3.6919904968         4.6989214083         0.5764690461 
H        3.3767984740         6.1599028801        -1.2658546599 
