         126

C        2.3738476036         2.6056963535         1.4616632518 
O        1.5901873752         2.6512023918         2.6785617431 
H        3.4524842109         2.5986678514         1.6775519235 
H        2.1228041089         3.5031260409         0.8826198386 
H        2.0977038271         1.7248425681         0.8631877765 
H        1.7456055278         1.7933422438         3.1802842131 
H        0.1861623263         0.3259663612         5.0340949517 
C        1.2647989337         0.3329948633         5.2499836234 
H        1.5409427101        -0.5478589221         5.8484590987 
H        1.5158424283         1.2304245506         5.8290270367 
O        2.0484591620         0.3785009016         4.0330851322 
H        1.8930410095        -0.4793592465         3.5313626622 
H       -0.1294243516         2.8970620168         2.0163526818 
O       -0.9649039736         3.2221492180         1.6079978705 
C       -0.9806721873         4.6425248687         1.7763024599 
H       -0.7730282395         4.9378452367         2.8165534612 
H       -0.2704138877         5.1422204500         1.0957610809 
H       -1.9886638569         4.9986872837         1.5301909584 
H        4.6847397877         0.4532843032         1.5301909584 
C        5.6927314573         0.0971218882         1.7763024599 
O        5.7084996710        -1.3232537625         1.6079978705 
H        5.9003754051         0.3924422562         2.8165534612 
H        6.4029897569         0.5968174695         1.0957610809 
H        6.5439792930        -1.6483409637         2.0163526818 
H       -0.2704138877         0.5968174695         1.0957610809 
C       -0.9806721873         0.0971218882         1.7763024599 
O       -0.9649039736        -1.3232537625         1.6079978705 
H       -0.7730282395         0.3924422562         2.8165534612 
H       -1.9886638569         0.4532843032         1.5301909584 
H       -0.1294243516        -1.6483409637         2.0163526818 
C       -2.3738476036        -4.2124081172        -1.4616632518 
H       -2.0977038271        -5.0932619026        -0.8631877765 
H       -3.4524842109        -4.2194366193        -1.6775519235 
H       -2.1228041089        -3.3149784299        -0.8826198386 
O       -1.5901873752        -4.1669020789        -2.6785617431 
H       -1.7456055278        -5.0247622270        -3.1802842131 
H       -2.0977038271        -0.5478589221        -0.8631877765 
C       -2.3738476036         0.3329948633        -1.4616632518 
H       -3.4524842109         0.3259663612        -1.6775519235 
H       -2.1228041089         1.2304245506        -0.8826198386 
O       -1.5901873752         0.3785009016        -2.6785617431 
H       -1.7456055278        -0.4793592465        -3.1802842131 
O       -2.0484591620        -1.8942005887        -4.0330851322 
C       -1.2647989337        -1.9397066270        -5.2499836234 
H       -1.8930410095        -2.7520607367        -3.5313626622 
H       -0.1861623263        -1.9467351291        -5.0340949517 
H       -1.5158424283        -1.0422769396        -5.8290270367 
H       -1.5409427101        -2.8205604124        -5.8484590987 
H        0.1294243516        -3.9210424540        -2.0163526818 
O        0.9649039736        -3.5959552528        -1.6079978705 
C        0.9806721873        -2.1755796020        -1.7763024599 
H        0.2704138877        -1.6758840208        -1.0957610809 
H        0.7730282395        -1.8802592341        -2.8165534612 
H        1.9886638569        -1.8194171870        -1.5301909584 
H       -4.6847397877        -1.8194171870        -1.5301909584 
C       -5.6927314573        -2.1755796020        -1.7763024599 
H       -6.4029897569        -1.6758840208        -1.0957610809 
H       -5.9003754051        -1.8802592341        -2.8165534612 
O       -5.7084996710        -3.5959552528        -1.6079978705 
H       -6.5439792930        -3.9210424540        -2.0163526818 
C       -4.2995560410        -1.9397066270         1.4616632518 
O       -5.0832162694        -1.8942005887         2.6785617431 
H       -3.2209194337        -1.9467351291         1.6775519235 
H       -4.5505995357        -1.0422769396         0.8826198386 
H       -4.5756998175        -2.8205604124         0.8631877765 
H       -4.9277981168        -2.7520607367         3.1802842131 
C       -0.9806721873        -4.4482810923         1.7763024599 
O       -0.9649039736        -5.8686567430         1.6079978705 
H       -0.7730282395        -4.1529607243         2.8165534612 
H       -0.2704138877        -3.9485855110         1.0957610809 
H       -1.9886638569        -4.0921186773         1.5301909584 
H       -0.1294243516        -6.1937439442         2.0163526818 
H       -2.2617288679        -1.8802592341         3.8950934140 
C       -2.0540849201        -2.1755796020         4.9353444153 
H       -2.7643432196        -1.6758840208         5.6158857944 
H       -1.0460932505        -1.8194171870         5.1814559168 
O       -2.0698531338        -3.5959552528         5.1036490047 
H       -2.9053327557        -3.9210424540         4.6952941934 
H       -2.0977038271         3.9975440584        -0.8631877765 
C       -2.3738476036         4.8783978438        -1.4616632518 
H       -3.4524842109         4.8713693417        -1.6775519235 
H       -2.1228041089         5.7758275311        -0.8826198386 
O       -1.5901873752         4.9239038821        -2.6785617431 
H       -1.7456055278         4.0660437340        -3.1802842131 
O       -2.0484591620         2.6512023918        -4.0330851322 
C       -1.2647989337         2.6056963535        -5.2499836234 
H       -1.8930410095         1.7933422438        -3.5313626622 
H       -0.1861623263         2.5986678514        -5.0340949517 
H       -1.5158424283         3.5031260409        -5.8290270367 
H       -1.5409427101         1.7248425681        -5.8484590987 
H        0.1294243516         0.6243605265        -2.0163526818 
O        0.9649039736         0.9494477277        -1.6079978705 
C        0.9806721873         2.3698233785        -1.7763024599 
H        0.2704138877         2.8695189597        -1.0957610809 
H        0.7730282395         2.6651437464        -2.8165534612 
H        1.9886638569         2.7259857935        -1.5301909584 
C       -4.2995560410         2.6056963535         1.4616632518 
O       -5.0832162694         2.6512023918         2.6785617431 
H       -3.2209194337         2.5986678514         1.6775519235 
H       -4.5505995357         3.5031260409         0.8826198386 
H       -4.5756998175         1.7248425681         0.8631877765 
H       -4.9277981168         1.7933422438         3.1802842131 
H       -2.2617288679         2.6651437464         3.8950934140 
C       -2.0540849201         2.3698233785         4.9353444153 
H       -2.7643432196         2.8695189597         5.6158857944 
H       -1.0460932505         2.7259857935         5.1814559168 
O       -2.0698531338         0.9494477277         5.1036490047 
H       -2.9053327557         0.6243605265         4.6952941934 
H        4.5756998175        -0.5478589221        -0.8631877765 
C        4.2995560410         0.3329948633        -1.4616632518 
H        3.2209194337         0.3259663612        -1.6775519235 
H        4.5505995357         1.2304245506        -0.8826198386 
O        5.0832162694         0.3785009016        -2.6785617431 
H        4.9277981168        -0.4793592465        -3.1802842131 
C        2.3738476036        -1.9397066270         1.4616632518 
O        1.5901873752        -1.8942005887         2.6785617431 
H        3.4524842109        -1.9467351291         1.6775519235 
H        2.1228041089        -1.0422769396         0.8826198386 
H        2.0977038271        -2.8205604124         0.8631877765 
H        1.7456055278        -2.7520607367         3.1802842131 
H        2.2617288679         0.3924422562        -3.8950934140 
C        2.0540849201         0.0971218882        -4.9353444153 
O        2.0698531338        -1.3232537625        -5.1036490047 
H        2.7643432196         0.5968174695        -5.6158857944 
H        1.0460932505         0.4532843032        -5.1814559168 
H        2.9053327557        -1.6483409637        -4.6952941934 
