         120

C        3.3419120622         1.5413459728         0.7430039661 
H        3.3153499182         0.7445115478         1.5060998855 
H        2.4650281419         1.4441113629         0.0846530589 
H        4.2504207165         1.4288165957         0.1379800936 
O        3.3806165128         2.8423897563         1.3382596567 
H        2.5162512969         2.9858504373         1.8432809152 
O        1.1541237565         3.2296908788         2.6734485579 
H        0.2897585406         3.0862301979         2.1684272994 
C        1.1154193059         4.5307346624         3.2687042485 
H        0.2385353856         4.6279692723         3.9270551557 
H        2.0239279602         4.6432640395         3.8737281210 
H        1.0888571619         5.3275690874         2.5056083291 
C       -1.1154193059        -4.5307346624        -0.7430039661 
H       -1.0888571619        -5.3275690874        -1.5060998855 
O       -1.1541237565        -3.2296908788        -1.3382596567 
H       -0.2385353856        -4.6279692723        -0.0846530589 
H       -2.0239279602        -4.6432640395        -0.1379800936 
H       -0.2897585406        -3.0862301979        -1.8432809152 
C       -3.3419120622        -1.5413459728        -3.2687042485 
O       -3.3806165128        -2.8423897563        -2.6734485579 
H       -3.3153499182        -0.7445115478        -2.5056083291 
H       -2.4650281419        -1.4441113629        -3.9270551557 
H       -4.2504207165        -1.4288165957        -3.8737281210 
H       -2.5162512969        -2.9858504373        -2.1684272994 
C       -3.3419120622        -1.5413459728         0.7430039661 
O       -3.3806165128        -2.8423897563         1.3382596567 
H       -3.3153499182        -0.7445115478         1.5060998855 
H       -2.4650281419        -1.4441113629         0.0846530589 
H       -4.2504207165        -1.4288165957         0.1379800936 
H       -2.5162512969        -2.9858504373         1.8432809152 
O       -1.1541237565        -3.2296908788         2.6734485579 
H       -0.2897585406        -3.0862301979         2.1684272994 
C       -1.1154193059        -4.5307346624         3.2687042485 
H       -1.0888571619        -5.3275690874         2.5056083291 
H       -0.2385353856        -4.6279692723         3.9270551557 
H       -2.0239279602        -4.6432640395         3.8737281210 
H       -2.4650281419        -1.4441113629         4.0963612735 
C       -3.3419120622        -1.5413459728         4.7547121807 
O       -3.3806165128        -2.8423897563         5.3499678713 
H       -3.3153499182        -0.7445115478         5.5178081001 
H       -4.2504207165        -1.4288165957         4.1496883082 
H       -2.5162512969        -2.9858504373         5.8549891298 
C       -1.1110734504         1.5413459728        -3.2687042485 
H       -1.1376355944         0.7445115478        -2.5056083291 
H       -1.9879573707         1.4441113629        -3.9270551557 
H       -0.2025647961         1.4288165957        -3.8737281210 
O       -1.0723689998         2.8423897563        -2.6734485579 
H       -1.9367342157         2.9858504373        -2.1684272994 
H       -2.4290575524         4.6432640395        -0.1379800936 
C       -3.3375662067         4.5307346624        -0.7430039661 
O       -3.2988617561         3.2296908788        -1.3382596567 
H       -4.2144501270         4.6279692723        -0.0846530589 
H       -3.3641283507         5.3275690874        -1.5060998855 
H       -4.1632269720         3.0862301979        -1.8432809152 
C       -1.1110734504         1.5413459728         0.7430039661 
H       -1.1376355944         0.7445115478         1.5060998855 
H       -1.9879573707         1.4441113629         0.0846530589 
H       -0.2025647961         1.4288165957         0.1379800936 
O       -1.0723689998         2.8423897563         1.3382596567 
H       -1.9367342157         2.9858504373         1.8432809152 
C       -1.1110734504         1.5413459728         4.7547121807 
H       -1.1376355944         0.7445115478         5.5178081001 
H       -1.9879573707         1.4441113629         4.0963612735 
H       -0.2025647961         1.4288165957         4.1496883082 
O       -1.0723689998         2.8423897563         5.3499678713 
H       -1.9367342157         2.9858504373         5.8549891298 
C        1.1110734504        -1.5413459728        -3.2687042485 
O        1.0723689998        -2.8423897563        -2.6734485579 
H        1.1376355944        -0.7445115478        -2.5056083291 
H        1.9879573707        -1.4441113629        -3.9270551557 
H        0.2025647961        -1.4288165957        -3.8737281210 
H        1.9367342157        -2.9858504373        -2.1684272994 
H        2.4290575524        -4.6432640395        -0.1379800936 
C        3.3375662067        -4.5307346624        -0.7430039661 
H        3.3641283507        -5.3275690874        -1.5060998855 
O        3.2988617561        -3.2296908788        -1.3382596567 
H        4.2144501270        -4.6279692723        -0.0846530589 
H        4.1632269720        -3.0862301979        -1.8432809152 
C        1.1110734504        -1.5413459728         0.7430039661 
O        1.0723689998        -2.8423897563         1.3382596567 
H        1.1376355944        -0.7445115478         1.5060998855 
H        1.9879573707        -1.4441113629         0.0846530589 
H        0.2025647961        -1.4288165957         0.1379800936 
H        1.9367342157        -2.9858504373         1.8432809152 
C        1.1110734504        -1.5413459728         4.7547121807 
O        1.0723689998        -2.8423897563         5.3499678713 
H        1.1376355944        -0.7445115478         5.5178081001 
H        1.9879573707        -1.4441113629         4.0963612735 
H        0.2025647961        -1.4288165957         4.1496883082 
H        1.9367342157        -2.9858504373         5.8549891298 
C        1.1154193059         4.5307346624        -0.7430039661 
O        1.1541237565         3.2296908788        -1.3382596567 
H        0.2385353856         4.6279692723        -0.0846530589 
H        2.0239279602         4.6432640395        -0.1379800936 
H        1.0888571619         5.3275690874        -1.5060998855 
H        0.2897585406         3.0862301979        -1.8432809152 
C        3.3419120622         1.5413459728        -3.2687042485 
H        3.3153499182         0.7445115478        -2.5056083291 
H        2.4650281419         1.4441113629        -3.9270551557 
H        4.2504207165         1.4288165957        -3.8737281210 
O        3.3806165128         2.8423897563        -2.6734485579 
H        2.5162512969         2.9858504373        -2.1684272994 
H        2.4650281419         1.4441113629         4.0963612735 
C        3.3419120622         1.5413459728         4.7547121807 
H        3.3153499182         0.7445115478         5.5178081001 
H        4.2504207165         1.4288165957         4.1496883082 
O        3.3806165128         2.8423897563         5.3499678713 
H        2.5162512969         2.9858504373         5.8549891298 
H        4.6555503087        -1.4288165957         0.1379800936 
C        5.5640589630        -1.5413459728         0.7430039661 
O        5.5253545124        -2.8423897563         1.3382596567 
H        5.5906211070        -0.7445115478         1.5060998855 
H        6.4409428833        -1.4441113629         0.0846530589 
H        6.3897197283        -2.9858504373         1.8432809152 
H       -4.6555503087         1.4288165957         0.1379800936 
C       -5.5640589630         1.5413459728         0.7430039661 
H       -5.5906211070         0.7445115478         1.5060998855 
H       -6.4409428833         1.4441113629         0.0846530589 
O       -5.5253545124         2.8423897563         1.3382596567 
H       -6.3897197283         2.9858504373         1.8432809152 
