          96

C       -2.2602385967         1.4706832101         3.6010287817 
H       -2.1702931650         2.4751449006         3.1655759335 
O       -2.0282166567         1.5766360043         5.0117249201 
H       -3.2658234750         1.0834394438         3.3764265711 
H       -1.5087711621         0.8219022137         3.1239705716 
H       -2.3509827608         0.7243979078         5.4557168986 
C        1.2830860143         0.6808948258         3.8494294029 
H        1.1931405825        -0.3235668647         4.2848822511 
H        0.5316185797         1.3296758222         4.3264876130 
O        1.0510640743         0.5749420316         2.4387332645 
H        2.2886708926         1.0681385921         4.0740316135 
H        1.3738301783         1.4271801281         1.9947412860 
H        5.1875965387         0.3235668647         0.5596531588 
C        5.2775419704        -0.6808948258         0.1242003106 
H        4.5260745358        -1.3296758222         0.6012585207 
O        5.0455200304        -0.5749420316        -1.2864958278 
H        6.2831268487        -1.0681385921         0.3488025212 
H        5.3682861345        -1.4271801281        -1.7304878063 
O        1.9662392994         2.7265200675         1.2864958278 
H        1.6434731954         3.5787581640         1.7304878063 
C        1.7342173595         2.8324728617        -0.1242003106 
H        0.7286324811         3.2197166280        -0.3488025212 
H        2.4856847940         3.4812538581        -0.6012585207 
H        1.8241627912         1.8280111712        -0.5596531588 
C       -1.2830860143        -0.6808948258        -3.8494294029 
H       -1.1931405825         0.3235668647        -4.2848822511 
O       -1.0510640743        -0.5749420316        -2.4387332645 
H       -2.2886708926        -1.0681385921        -4.0740316135 
H       -0.5316185797        -1.3296758222        -4.3264876130 
H       -1.3738301783        -1.4271801281        -1.9947412860 
C        2.2602385967        -1.4706832101        -3.6010287817 
H        1.5087711621        -0.8219022137        -3.1239705716 
O        2.0282166567        -1.5766360043        -5.0117249201 
H        3.2658234750        -1.0834394438        -3.3764265711 
H        2.1702931650        -2.4751449006        -3.1655759335 
H        2.3509827608        -0.7243979078        -5.4557168986 
H       -5.1875965387        -0.3235668647        -0.5596531588 
C       -5.2775419704         0.6808948258        -0.1242003106 
O       -5.0455200304         0.5749420316         1.2864958278 
H       -6.2831268487         1.0681385921        -0.3488025212 
H       -4.5260745358         1.3296758222        -0.6012585207 
H       -5.3682861345         1.4271801281         1.7304878063 
O       -1.9662392994        -2.7265200675        -1.2864958278 
H       -1.6434731954        -3.5787581640        -1.7304878063 
C       -1.7342173595        -2.8324728617         0.1242003106 
H       -1.8241627912        -1.8280111712         0.5596531588 
H       -2.4856847940        -3.4812538581         0.6012585207 
H       -0.7286324811        -3.2197166280         0.3488025212 
C        2.2602385967         2.8324728617        -3.6010287817 
H        1.5087711621         3.4812538581        -3.1239705716 
O        2.0282166567         2.7265200675        -5.0117249201 
H        3.2658234750         3.2197166280        -3.3764265711 
H        2.1702931650         1.8280111712        -3.1655759335 
H        2.3509827608         3.5787581640        -5.4557168986 
H       -3.7459358548         1.0681385921        -3.3764265711 
C       -4.7515207332         0.6808948258        -3.6010287817 
H       -4.8414661649        -0.3235668647        -3.1655759335 
H       -5.5029881677         1.3296758222        -3.1239705716 
O       -4.9835426732         0.5749420316        -5.0117249201 
H       -4.6607765691         1.4271801281        -5.4557168986 
H       -0.5316185797         2.9734802496        -4.3264876130 
C       -1.2830860143         3.6222612460        -3.8494294029 
H       -1.1931405825         4.6267229365        -4.2848822511 
O       -1.0510640743         3.7282140402        -2.4387332645 
H       -2.2886708926         3.2350174797        -4.0740316135 
H       -1.3738301783         2.8759759437        -1.9947412860 
O       -1.9662392994         1.5766360043        -1.2864958278 
H       -1.6434731954         0.7243979078        -1.7304878063 
C       -1.7342173595         1.4706832101         0.1242003106 
H       -1.8241627912         2.4751449006         0.5596531588 
H       -2.4856847940         0.8219022137         0.6012585207 
H       -0.7286324811         1.0834394438         0.3488025212 
C        1.7342173595        -1.4706832101        -0.1242003106 
O        1.9662392994        -1.5766360043         1.2864958278 
H        0.7286324811        -1.0834394438        -0.3488025212 
H        2.4856847940        -0.8219022137        -0.6012585207 
H        1.8241627912        -2.4751449006        -0.5596531588 
H        1.6434731954        -0.7243979078         1.7304878063 
C       -2.2602385967        -2.8324728617         3.6010287817 
H       -2.1702931650        -1.8280111712         3.1655759335 
O       -2.0282166567        -2.7265200675         5.0117249201 
H       -3.2658234750        -3.2197166280         3.3764265711 
H       -1.5087711621        -3.4812538581         3.1239705716 
H       -2.3509827608        -3.5787581640         5.4557168986 
H        3.7459358548        -1.0681385921         3.3764265711 
C        4.7515207332        -0.6808948258         3.6010287817 
H        4.8414661649         0.3235668647         3.1655759335 
O        4.9835426732        -0.5749420316         5.0117249201 
H        5.5029881677        -1.3296758222         3.1239705716 
H        4.6607765691        -1.4271801281         5.4557168986 
H        0.5316185797        -2.9734802496         4.3264876130 
C        1.2830860143        -3.6222612460         3.8494294029 
H        1.1931405825        -4.6267229365         4.2848822511 
O        1.0510640743        -3.7282140402         2.4387332645 
H        2.2886708926        -3.2350174797         4.0740316135 
H        1.3738301783        -2.8759759437         1.9947412860 
