         126

C        1.3628964746         1.7965851279         3.9574710501 
H        2.1305222283         2.5464510370         4.2109894294 
H        1.8519074332         0.8215450744         3.8355156611 
H        0.6545579821         1.7284699111         4.7992029453 
O        0.7150306824         2.1000807972         2.7189933110 
H        0.2050762868         2.9315792607         2.8175147913 
H        1.8782677775         1.7284699111         0.1500293859 
C        2.5866062699         1.7965851279        -0.6917025093 
H        3.3542320237         2.5464510370        -0.4381841300 
H        3.0756172285         0.8215450744        -0.8136578983 
O        1.9387404777         2.1000807972        -1.9301802484 
H        1.4287860821         2.9315792607        -1.8316587682 
O        1.3268855801         4.8402725809         0.3944065313 
C        1.9747513723         5.1437682502         1.6328842704 
H        0.8169311845         4.0087741174         0.4929280116 
H        2.4637623308         6.1188083037         1.5109288814 
H        1.2664128798         5.2118834670         2.4746161656 
H        2.7423771260         4.3939023411         1.8864026497 
H        3.6642051326         2.2722700733         2.2038147109 
C        4.7164473548         1.9662161759         2.3073821322 
H        5.2841475614         2.3189334019         1.4382156795 
H        5.1519562124         2.3991632664         3.2182416746 
O        4.8325431724         0.5329488253         2.3371675977 
H        4.4530399581         0.1854091822         3.1965569951 
C       -3.7052961492        -1.6735915611        -0.6917025093 
O       -4.3531619414        -1.3700958919        -1.9301802484 
H       -2.9376703955        -0.9237256520        -0.4381841300 
H       -4.4136346417        -1.7417067779         0.1500293859 
H       -3.2162851907        -2.6486316146        -0.8136578983 
H       -4.8631163370        -0.5385974283        -1.8316587682 
H        0.0837635886        -1.0710134226        -1.4309318849 
C       -0.3517452690        -1.5039605131        -2.3417914273 
H       -1.4039874913        -1.1979066157        -2.4453588485 
O       -0.2356494515        -2.9372278637        -2.3120059617 
H        0.2159549375        -1.1512432872        -3.2109578799 
H       -0.6151526658        -3.2847675069        -1.4526165644 
H       -0.0032977681        -3.6555858712        -3.7772033441 
O        0.3762054462        -4.0031255144        -4.6365927415 
C        0.2601096287        -5.4363928650        -4.6663782070 
H        0.8278098352        -5.7891100909        -5.5355446597 
H       -0.7921325936        -5.7424467624        -4.7699456283 
H        0.6956184862        -5.8693399555        -3.7555186646 
H       -1.1399462067        -1.0710134226         3.2182416746 
C       -1.5754550643        -1.5039605131         2.3073821322 
H       -2.6276972866        -1.1979066157         2.2038147109 
O       -1.4593592468        -2.9372278637         2.3371675977 
H       -1.0077548578        -1.1512432872         1.4382156795 
H       -1.8388624611        -3.2847675069         3.1965569951 
O       -0.8475043491        -4.0031255144         0.0125808180 
H       -1.2270075634        -3.6555858712         0.8719702154 
C       -0.9636001667        -5.4363928650        -0.0172046475 
H       -0.3958999601        -5.7891100909        -0.8863711002 
H       -2.0158423889        -5.7424467624        -0.1207720688 
H       -0.5280913091        -5.8693399555         0.8936548949 
C       -3.0934412515         1.6735915611        -3.0162892891 
H       -2.6044302930         2.6486316146        -3.1382446781 
H       -2.3258154978         0.9237256520        -2.7627709098 
H       -3.8017797440         1.7417067779        -2.1745573939 
O       -3.7413070438         1.3700958919        -4.2547670282 
H       -4.2512614394         0.5385974283        -4.1562455479 
H        0.6956184862         1.0710134226        -3.7555186646 
C        0.2601096287         1.5039605131        -4.6663782070 
H        0.8278098352         1.1512432872        -5.5355446597 
O        0.3762054462         2.9372278637        -4.6365927415 
H       -0.7921325936         1.1979066157        -4.7699456283 
H       -0.0032977681         3.2847675069        -3.7772033441 
C       -0.9636001667         1.5039605131        -0.0172046475 
H       -0.3958999601         1.1512432872        -0.8863711002 
O       -0.8475043491         2.9372278637         0.0125808180 
H       -2.0158423889         1.1979066157        -0.1207720688 
H       -0.5280913091         1.0710134226         0.8936548949 
H       -1.2270075634         3.2847675069         0.8719702154 
O       -0.2356494515         4.0031255144        -2.3120059617 
C       -0.3517452690         5.4363928650        -2.3417914273 
H       -0.6151526658         3.6555858712        -1.4526165644 
H       -1.4039874913         5.7424467624        -2.4453588485 
H        0.0837635886         5.8693399555        -1.4309318849 
H        0.2159549375         5.7891100909        -3.2109578799 
C       -4.3171510469         1.6735915611         1.6328842704 
H       -3.8281400883         2.6486316146         1.5109288814 
H       -3.5495252932         0.9237256520         1.8864026497 
H       -5.0254895393         1.7417067779         2.4746161656 
O       -4.9650168391         1.3700958919         0.3944065313 
H       -5.4749712347         0.5385974283         0.4929280116 
H       -1.6196097554         1.1512432872         3.7628024593 
C       -2.1873099620         1.5039605131         4.6319689120 
O       -2.0712141444         2.9372278637         4.6617543775 
H       -3.2395521842         1.1979066157         4.5284014907 
H       -1.7518011044         1.0710134226         5.5428284543 
H       -2.4507173587         3.2847675069         5.5211437748 
O       -1.4593592468         4.0031255144         2.3371675977 
C       -1.5754550643         5.4363928650         2.3073821322 
H       -1.8388624611         3.6555858712         3.1965569951 
H       -2.6276972866         5.7424467624         2.2038147109 
H       -1.1399462067         5.8693399555         3.2182416746 
H       -1.0077548578         5.7891100909         1.4382156795 
C        3.1984611676        -1.7965851279        -3.0162892891 
O        2.5505953754        -2.1000807972        -4.2547670282 
H        3.6874721261        -0.8215450744        -3.1382446781 
H        2.4901226751        -1.7284699111        -2.1745573939 
H        3.9660869213        -2.5464510370        -2.7627709098 
H        2.0406409798        -2.9315792607        -4.1562455479 
H        1.4287860821        -4.0087741174        -1.8316587682 
O        1.9387404777        -4.8402725809        -1.9301802484 
C        2.5866062699        -5.1437682502        -0.6917025093 
H        3.3542320237        -4.3939023411        -0.4381841300 
H        3.0756172285        -6.1188083037        -0.8136578983 
H        1.8782677775        -5.2118834670         0.1500293859 
H        4.2760600302        -2.2722700733        -0.1207720688 
C        5.3283022525        -1.9662161759        -0.0172046475 
O        5.4443980700        -0.5329488253         0.0125808180 
H        5.7638111101        -2.3991632664         0.8936548949 
H        5.8960024590        -2.3189334019        -0.8863711002 
H        5.0648948557        -0.1854091822         0.8719702154 
C        1.9747513723        -1.7965851279         1.6328842704 
O        1.3268855801        -2.1000807972         0.3944065313 
H        2.4637623308        -0.8215450744         1.5109288814 
H        1.2664128798        -1.7284699111         2.4746161656 
H        2.7423771260        -2.5464510370         1.8864026497 
H        0.8169311845        -2.9315792607         0.4929280116 
H        0.2050762868        -4.0087741174         2.8175147913 
O        0.7150306824        -4.8402725809         2.7189933110 
C        1.3628964746        -5.1437682502         3.9574710501 
H        2.1305222283        -4.3939023411         4.2109894294 
H        1.8519074332        -6.1188083037         3.8355156611 
H        0.6545579821        -5.2118834670         4.7992029453 
