         120

C        2.0936534067         2.0125086596         4.2934897144 
O        2.2146237977         3.1034029010         5.2143688194 
H        3.0753294331         1.8202805387         3.8397999605 
H        1.7545237462         1.1022731279         4.8168465797 
H        1.3782080011         2.2505571792         3.4928834954 
H        1.3627025231         3.6536775307         5.1923471848 
C        0.0751258188         2.0125086596         0.7343735855 
O       -0.0458445722         3.1034029010         1.6552526906 
H       -0.9065502077         1.8202805387         0.2806838316 
H        0.7905712243         2.2505571792        -0.0662326334 
H        0.4142554792         1.1022731279         1.2577304509 
H        0.8060767023         3.6536775307         1.6332310560 
H        3.4310082432         1.8202805387         0.2806838316 
C        4.4126842697         2.0125086596         0.7343735855 
O        4.2917138787         3.1034029010         1.6552526906 
H        5.1281296752         2.2505571792        -0.0662326334 
H        4.7518139301         1.1022731279         1.2577304509 
H        5.1436351532         3.6536775307         1.6332310560 
O        2.1229346532         4.5228286464         1.6552526906 
C        2.2439050442         5.6137228878         0.7343735855 
H        2.9748559278         3.9725540167         1.6332310560 
H        2.9593504498         5.3756743682        -0.0662326334 
H        2.5830347047         6.5239584195         1.2577304509 
H        1.2622290178         5.8059510087         0.2806838316 
C       -2.0936534067        -2.0125086596        -2.8247425433 
H       -1.7545237462        -1.1022731279        -2.3013856780 
H       -1.3782080011        -2.2505571792        -3.6253487623 
O       -2.2146237977        -3.1034029010        -1.9038634383 
H       -3.0753294331        -1.8202805387        -3.2784322972 
H       -1.3627025231        -3.6536775307        -1.9258850729 
H       -0.7905712243        -2.2505571792        -0.0662326334 
C       -0.0751258188        -2.0125086596         0.7343735855 
H        0.9065502077        -1.8202805387         0.2806838316 
O        0.0458445722        -3.1034029010         1.6552526906 
H       -0.4142554792        -1.1022731279         1.2577304509 
H       -0.8060767023        -3.6536775307         1.6332310560 
O       -0.0458445722        -4.5228286464        -1.9038634383 
H        0.8060767023        -3.9725540167        -1.9258850729 
C        0.0751258188        -5.6137228878        -2.8247425433 
H       -0.9065502077        -5.8059510087        -3.2784322972 
H        0.4142554792        -6.5239584195        -2.3013856780 
H        0.7905712243        -5.3756743682        -3.6253487623 
C       -2.0936534067        -2.0125086596         4.2934897144 
H       -1.7545237462        -1.1022731279         4.8168465797 
H       -1.3782080011        -2.2505571792         3.4928834954 
O       -2.2146237977        -3.1034029010         5.2143688194 
H       -3.0753294331        -1.8202805387         3.8397999605 
H       -1.3627025231        -3.6536775307         5.1923471848 
H       -3.4310082432        -1.8202805387         0.2806838316 
C       -4.4126842697        -2.0125086596         0.7343735855 
H       -5.1281296752        -2.2505571792        -0.0662326334 
O       -4.2917138787        -3.1034029010         1.6552526906 
H       -4.7518139301        -1.1022731279         1.2577304509 
H       -5.1436351532        -3.6536775307         1.6332310560 
O       -2.1229346532        -4.5228286464         1.6552526906 
H       -2.9748559278        -3.9725540167         1.6332310560 
C       -2.2439050442        -5.6137228878         0.7343735855 
H       -1.2622290178        -5.8059510087         0.2806838316 
H       -2.9593504498        -5.3756743682        -0.0662326334 
H       -2.5830347047        -6.5239584195         1.2577304509 
C       -2.2439050442         2.0125086596        -2.8247425433 
O       -2.1229346532         3.1034029010        -1.9038634383 
H       -1.2622290178         1.8202805387        -3.2784322972 
H       -2.5830347047         1.1022731279        -2.3013856780 
H       -2.9593504498         2.2505571792        -3.6253487623 
H       -2.9748559278         3.6536775307        -1.9258850729 
H       -3.5469872266         2.2505571792        -0.0662326334 
C       -4.2624326321         2.0125086596         0.7343735855 
O       -4.3834030231         3.1034029010         1.6552526906 
H       -5.2441086586         1.8202805387         0.2806838316 
H       -3.9233029717         1.1022731279         1.2577304509 
H       -3.5314817486         3.6536775307         1.6332310560 
H       -0.8060767023         3.9725540167        -1.9258850729 
O        0.0458445722         4.5228286464        -1.9038634383 
C       -0.0751258188         5.6137228878        -2.8247425433 
H       -0.4142554792         6.5239584195        -2.3013856780 
H        0.9065502077         5.8059510087        -3.2784322972 
H       -0.7905712243         5.3756743682        -3.6253487623 
C       -2.2439050442         2.0125086596         4.2934897144 
O       -2.1229346532         3.1034029010         5.2143688194 
H       -1.2622290178         1.8202805387         3.8397999605 
H       -2.5830347047         1.1022731279         4.8168465797 
H       -2.9593504498         2.2505571792         3.4928834954 
H       -2.9748559278         3.6536775307         5.1923471848 
H       -1.3627025231         3.9725540167         1.6332310560 
O       -2.2146237977         4.5228286464         1.6552526906 
C       -2.0936534067         5.6137228878         0.7343735855 
H       -1.3782080011         5.3756743682        -0.0662326334 
H       -1.7545237462         6.5239584195         1.2577304509 
H       -3.0753294331         5.8059510087         0.2806838316 
C        2.2439050442        -2.0125086596        -2.8247425433 
H        2.5830347047        -1.1022731279        -2.3013856780 
H        2.9593504498        -2.2505571792        -3.6253487623 
O        2.1229346532        -3.1034029010        -1.9038634383 
H        1.2622290178        -1.8202805387        -3.2784322972 
H        2.9748559278        -3.6536775307        -1.9258850729 
H        3.5469872266        -2.2505571792        -0.0662326334 
C        4.2624326321        -2.0125086596         0.7343735855 
H        5.2441086586        -1.8202805387         0.2806838316 
O        4.3834030231        -3.1034029010         1.6552526906 
H        3.9233029717        -1.1022731279         1.2577304509 
H        3.5314817486        -3.6536775307         1.6332310560 
C        2.2439050442        -2.0125086596         4.2934897144 
H        2.5830347047        -1.1022731279         4.8168465797 
H        2.9593504498        -2.2505571792         3.4928834954 
O        2.1229346532        -3.1034029010         5.2143688194 
H        1.2622290178        -1.8202805387         3.8397999605 
H        2.9748559278        -3.6536775307         5.1923471848 
H        1.3627025231        -3.9725540167         1.6332310560 
O        2.2146237977        -4.5228286464         1.6552526906 
C        2.0936534067        -5.6137228878         0.7343735855 
H        3.0753294331        -5.8059510087         0.2806838316 
H        1.3782080011        -5.3756743682        -0.0662326334 
H        1.7545237462        -6.5239584195         1.2577304509 
C        2.0936534067         2.0125086596        -2.8247425433 
O        2.2146237977         3.1034029010        -1.9038634383 
H        3.0753294331         1.8202805387        -3.2784322972 
H        1.7545237462         1.1022731279        -2.3013856780 
H        1.3782080011         2.2505571792        -3.6253487623 
H        1.3627025231         3.6536775307        -1.9258850729 
