         132

H        1.8069534705         3.6372762236         1.6060999504 
C        1.8411237696         4.6755575543         1.9660499323 
H        2.8261024868         5.1057035542         1.7206394518 
H        1.7235595368         4.6643156422         3.0558570740 
O        0.7636458168         5.4597917759         1.4226330192 
H        0.6745302054         5.2785783797         0.4372923567 
H       -0.2764233766         1.4435202999         2.4981870724 
C       -0.5496380334         1.6427761648         1.4506262638 
O       -1.9423701419         1.3919789133         1.2086469437 
H       -0.3590150900         2.7012122668         1.2344678997 
H        0.0955859093         1.0300829328         0.8009476309 
H       -2.1350337765         0.4212814385         1.4029981291 
O        2.8469514311         1.3919789133         1.2086469437 
H        2.6542877965         0.4212814385         1.4029981291 
C        4.2396835396         1.6427761648         1.4506262638 
H        4.4303064830         2.7012122668         1.2344678997 
H        4.8849074823         1.0300829328         0.8009476309 
H        4.5128981964         1.4435202999         2.4981870724 
H       -1.8069534705        -3.6372762236        -1.6060999504 
C       -1.8411237696        -4.6755575543        -1.9660499323 
O       -0.7636458168        -5.4597917759        -1.4226330192 
H       -1.7235595368        -4.6643156422        -3.0558570740 
H       -2.8261024868        -5.1057035542        -1.7206394518 
H       -0.6745302054        -5.2785783797        -0.4372923567 
H        0.2764233766        -1.4435202999        -2.4981870724 
C        0.5496380334        -1.6427761648        -1.4506262638 
O        1.9423701419        -1.3919789133        -1.2086469437 
H       -0.0955859093        -1.0300829328        -0.8009476309 
H        0.3590150900        -2.7012122668        -1.2344678997 
H        2.1350337765        -0.4212814385        -1.4029981291 
O       -2.8469514311        -1.3919789133        -1.2086469437 
C       -4.2396835396        -1.6427761648        -1.4506262638 
H       -2.6542877965        -0.4212814385        -1.4029981291 
H       -4.5128981964        -1.4435202999        -2.4981870724 
H       -4.8849074823        -1.0300829328        -0.8009476309 
H       -4.4303064830        -2.7012122668        -1.2344678997 
C       -1.3852672870        -1.9913102851         1.9660499323 
H       -0.4002885697        -1.5611642853         1.7206394518 
H       -1.4194375860        -3.0295916158         1.6060999504 
H       -1.5028315197        -2.0025521973         3.0558570740 
O       -2.4627452398        -1.2070760635         1.4226330192 
H       -2.5518608511        -1.3882894597         0.4372923567 
H       -1.8314323378         0.6812546130         4.1263971716 
C       -1.5582176810         0.4819987481         5.1739579802 
O       -0.1654855725         0.7327959996         5.4159373003 
H       -2.2034416237         1.0946919802         5.8236366131 
H       -1.7488406243        -0.5764373539         5.3901163443 
H        0.0271780621         1.7034934745         5.2215861149 
C       -3.4040542860         1.9913102851        -1.9660499323 
O       -2.3265763332         1.2070760635        -1.4226330192 
H       -3.2864900533         2.0025521973        -3.0558570740 
H       -3.3698839870         3.0295916158        -1.6060999504 
H       -4.3890330033         1.5611642853        -1.7206394518 
H       -2.2374607219         1.3882894597        -0.4372923567 
H       -0.9579063218         2.5395407292        -3.5687271700 
C       -0.8403420891         2.5507826414        -4.6585343117 
H        0.1446366282         2.9809286412        -4.9039447922 
H       -0.8745123881         1.5125013107        -5.0184842936 
O       -1.9178200418         3.3350168630        -5.2019512249 
H       -2.0069356532         3.1538034668        -6.1872918873 
H       -2.9578892352        -0.6812546130        -4.1263971716 
C       -3.2311038920        -0.4819987481        -5.1739579802 
O       -4.6238360005        -0.7327959996        -5.4159373003 
H       -3.0404809487         0.5764373539        -5.3901163443 
H       -2.5858799493        -1.0946919802        -5.8236366131 
H       -4.8164996351        -1.7034934745        -5.2215861149 
H       -1.2039154264         3.9656555727        -1.2344678997 
C       -1.0132924831         5.0240916746        -1.4506262638 
H       -1.2865071399         5.2233475395        -2.4981870724 
O        0.3794396254         5.2748889261        -1.2086469437 
H       -1.6585164258         5.6367849067        -0.8009476309 
H        0.5721032600         6.2455864010        -1.4029981291 
H       -2.9823681025         3.6372762236         1.6060999504 
C       -2.9481978034         4.6755575543         1.9660499323 
H       -1.9632190862         5.1057035542         1.7206394518 
H       -3.0657620362         4.6643156422         3.0558570740 
O       -4.0256757562         5.4597917759         1.4226330192 
H       -4.1147913676         5.2785783797         0.4372923567 
H       -4.6937356637         1.0300829328         0.8009476309 
C       -5.3389596064         1.6427761648         1.4506262638 
O       -6.7316917149         1.3919789133         1.2086469437 
H       -5.1483366630         2.7012122668         1.2344678997 
H       -5.0657449496         1.4435202999         2.4981870724 
H       -6.9243553495         0.4212814385         1.4029981291 
H        2.9823681025        -3.6372762236        -1.6060999504 
C        2.9481978034        -4.6755575543        -1.9660499323 
O        4.0256757562        -5.4597917759        -1.4226330192 
H        3.0657620362        -4.6643156422        -3.0558570740 
H        1.9632190862        -5.1057035542        -1.7206394518 
H        4.1147913676        -5.2785783797        -0.4372923567 
H        4.6937356637        -1.0300829328        -0.8009476309 
C        5.3389596064        -1.6427761648        -1.4506262638 
H        5.0657449496        -1.4435202999        -2.4981870724 
O        6.7316917149        -1.3919789133        -1.2086469437 
H        5.1483366630        -2.7012122668        -1.2344678997 
H        6.9243553495        -0.4212814385        -1.4029981291 
C        3.4040542860        -1.9913102851         1.9660499323 
H        4.3890330033        -1.5611642853         1.7206394518 
H        3.3698839870        -3.0295916158         1.6060999504 
H        3.2864900533        -2.0025521973         3.0558570740 
O        2.3265763332        -1.2070760635         1.4226330192 
H        2.2374607219        -1.3882894597         0.4372923567 
H        0.9579063218        -2.5395407292         3.5687271700 
C        0.8403420891        -2.5507826414         4.6585343117 
O        1.9178200418        -3.3350168630         5.2019512249 
H        0.8745123881        -1.5125013107         5.0184842936 
H       -0.1446366282        -2.9809286412         4.9039447922 
H        2.0069356532        -3.1538034668         6.1872918873 
H        2.9578892352         0.6812546130         4.1263971716 
C        3.2311038920         0.4819987481         5.1739579802 
O        4.6238360005         0.7327959996         5.4159373003 
H        2.5858799493         1.0946919802         5.8236366131 
H        3.0404809487        -0.5764373539         5.3901163443 
H        4.8164996351         1.7034934745         5.2215861149 
H        1.2039154264        -3.9656555727         1.2344678997 
C        1.0132924831        -5.0240916746         1.4506262638 
O       -0.3794396254        -5.2748889261         1.2086469437 
H        1.6585164258        -5.6367849067         0.8009476309 
H        1.2865071399        -5.2233475395         2.4981870724 
H       -0.5721032600        -6.2455864010         1.4029981291 
C        1.3852672870         1.9913102851        -1.9660499323 
O        2.4627452398         1.2070760635        -1.4226330192 
H        1.5028315197         2.0025521973        -3.0558570740 
H        1.4194375860         3.0295916158        -1.6060999504 
H        0.4002885697         1.5611642853        -1.7206394518 
H        2.5518608511         1.3882894597        -0.4372923567 
H        1.8314323378        -0.6812546130        -4.1263971716 
C        1.5582176810        -0.4819987481        -5.1739579802 
O        0.1654855725        -0.7327959996        -5.4159373003 
H        1.7488406243         0.5764373539        -5.3901163443 
H        2.2034416237        -1.0946919802        -5.8236366131 
H       -0.0271780621        -1.7034934745        -5.2215861149 
