         132

H        1.4747245926         0.0950792891         5.0801780376 
C        0.9609152325        -0.8741929595         5.0195201556 
H        0.4852476818        -1.0859175917         5.9913728592 
O       -0.0257188853        -0.8116087096         3.9803438958 
H        1.7073897287        -1.6534250573         4.8088590395 
H       -0.0198263092        -1.6791370205         3.4560344556 
H       -0.0198263092         2.6616774413         3.4560344556 
O       -0.0257188853         3.5292057522         3.9803438958 
C        0.9609152325         3.4666215023         5.0195201556 
H        1.4747245926         4.4358937509         5.0801780376 
H        0.4852476818         3.2548968701         5.9913728592 
H        1.7073897287         2.6873894045         4.8088590395 
H        3.5834450938         0.4912702104         3.4560344556 
O        3.5775525176         1.3587985213         3.9803438958 
C        4.5641866355         1.2962142714         5.0195201556 
H        5.0779959956         2.2654865200         5.0801780376 
H        5.3106611317         0.5169821736         4.8088590395 
H        4.0885190848         1.0844896392         5.9913728592 
H        4.0384274260         3.1589810126         0.5618766792 
C        4.5237057890         3.4510249876         1.5079868348 
H        5.3094363855         2.7210892820         1.7503193310 
O        3.5553726121         3.5323248891         2.5616698060 
H        4.9896195293         4.4375766153         1.3772978934 
H        3.5649280037         2.6667102688         3.0892993777 
H        0.4351560230         0.9885737817         0.5618766792 
C        0.9204343860         1.2806177567         1.5079868348 
H        1.3863481263         2.2671693844         1.3772978934 
O       -0.0478987908         1.3619176582         2.5616698060 
H        1.7061649825         0.5506820511         1.7503193310 
H       -0.0383433992         0.4963030379         3.0892993777 
H        4.9896195293         0.0967621535         1.3772978934 
C        4.5237057890        -0.8897894742         1.5079868348 
H        5.3094363855        -1.6197251798         1.7503193310 
O        3.5553726121        -0.8084895727         2.5616698060 
H        4.0384274260        -1.1818334492         0.5618766792 
H        3.5649280037        -1.6741041930         3.0892993777 
H       -1.4747245926        -0.0950792891        -5.0801780376 
C       -0.9609152325         0.8741929595        -5.0195201556 
O        0.0257188853         0.8116087096        -3.9803438958 
H       -1.7073897287         1.6534250573        -4.8088590395 
H       -0.4852476818         1.0859175917        -5.9913728592 
H        0.0198263092         1.6791370205        -3.4560344556 
H        0.0198263092        -2.6616774413        -3.4560344556 
O        0.0257188853        -3.5292057522        -3.9803438958 
C       -0.9609152325        -3.4666215023        -5.0195201556 
H       -1.4747245926        -4.4358937509        -5.0801780376 
H       -1.7073897287        -2.6873894045        -4.8088590395 
H       -0.4852476818        -3.2548968701        -5.9913728592 
H       -3.5834450938        -0.4912702104        -3.4560344556 
O       -3.5775525176        -1.3587985213        -3.9803438958 
C       -4.5641866355        -1.2962142714        -5.0195201556 
H       -4.0885190848        -1.0844896392        -5.9913728592 
H       -5.3106611317        -0.5169821736        -4.8088590395 
H       -5.0779959956        -2.2654865200        -5.0801780376 
H       -4.0384274260        -3.1589810126        -0.5618766792 
C       -4.5237057890        -3.4510249876        -1.5079868348 
H       -4.9896195293        -4.4375766153        -1.3772978934 
O       -3.5553726121        -3.5323248891        -2.5616698060 
H       -5.3094363855        -2.7210892820        -1.7503193310 
H       -3.5649280037        -2.6667102688        -3.0892993777 
H       -0.4351560230        -0.9885737817        -0.5618766792 
C       -0.9204343860        -1.2806177567        -1.5079868348 
H       -1.7061649825        -0.5506820511        -1.7503193310 
O        0.0478987908        -1.3619176582        -2.5616698060 
H       -1.3863481263        -2.2671693844        -1.3772978934 
H        0.0383433992        -0.4963030379        -3.0892993777 
H       -4.9896195293        -0.0967621535        -1.3772978934 
C       -4.5237057890         0.8897894742        -1.5079868348 
H       -4.0384274260         1.1818334492        -0.5618766792 
O       -3.5553726121         0.8084895727        -2.5616698060 
H       -5.3094363855         1.6197251798        -1.7503193310 
H       -3.5649280037         1.6741041930        -3.0892993777 
H       -3.1681153799        -1.1818334492         0.5618766792 
C       -2.6828370169        -0.8897894742         1.5079868348 
H       -1.8971064204        -1.6197251798         1.7503193310 
O       -3.6511701938        -0.8084895727         2.5616698060 
H       -2.2169232766         0.0967621535         1.3772978934 
H       -3.6416148022        -1.6741041930         3.0892993777 
H       -2.2169232766        -4.2440523083         1.3772978934 
C       -2.6828370169        -5.2306039360         1.5079868348 
H       -1.8971064204        -5.9605396416         1.7503193310 
O       -3.6511701938        -5.1493040345         2.5616698060 
H       -3.1681153799        -5.5226479110         0.5618766792 
H       -3.6416148022        -6.0149186548         3.0892993777 
H       -0.4351560230         3.3522406801        -0.5618766792 
C       -0.9204343860         3.0601967051        -1.5079868348 
H       -1.7061649825         3.7901324107        -1.7503193310 
O        0.0478987908         2.9788968036        -2.5616698060 
H       -1.3863481263         2.0736450774        -1.3772978934 
H        0.0383433992         3.8445114239        -3.0892993777 
H       -1.8958816742         0.5169821736         4.8088590395 
C       -2.6423561704         1.2962142714         5.0195201556 
H       -2.1285468103         2.2654865200         5.0801780376 
H       -3.1180237211         1.0844896392         5.9913728592 
O       -3.6289902883         1.3587985213         3.9803438958 
H       -3.6230977121         0.4912702104         3.4560344556 
H       -3.1681153799         3.1589810126         0.5618766792 
C       -2.6828370169         3.4510249876         1.5079868348 
H       -1.8971064204         2.7210892820         1.7503193310 
O       -3.6511701938         3.5323248891         2.5616698060 
H       -2.2169232766         4.4375766153         1.3772978934 
H       -3.6416148022         2.6667102688         3.0892993777 
H        1.8958816742        -0.5169821736        -4.8088590395 
C        2.6423561704        -1.2962142714        -5.0195201556 
O        3.6289902883        -1.3587985213        -3.9803438958 
H        3.1180237211        -1.0844896392        -5.9913728592 
H        2.1285468103        -2.2654865200        -5.0801780376 
H        3.6230977121        -0.4912702104        -3.4560344556 
H        3.1681153799        -3.1589810126        -0.5618766792 
C        2.6828370169        -3.4510249876        -1.5079868348 
H        2.2169232766        -4.4375766153        -1.3772978934 
O        3.6511701938        -3.5323248891        -2.5616698060 
H        1.8971064204        -2.7210892820        -1.7503193310 
H        3.6416148022        -2.6667102688        -3.0892993777 
H        2.2169232766        -0.0967621535        -1.3772978934 
C        2.6828370169         0.8897894742        -1.5079868348 
H        3.1681153799         1.1818334492        -0.5618766792 
O        3.6511701938         0.8084895727        -2.5616698060 
H        1.8971064204         1.6197251798        -1.7503193310 
H        3.6416148022         1.6741041930        -3.0892993777 
H        0.4351560230        -3.3522406801         0.5618766792 
C        0.9204343860        -3.0601967051         1.5079868348 
H        1.3863481263        -2.0736450774         1.3772978934 
O       -0.0478987908        -2.9788968036         2.5616698060 
H        1.7061649825        -3.7901324107         1.7503193310 
H       -0.0383433992        -3.8445114239         3.0892993777 
H        2.2169232766         4.2440523083        -1.3772978934 
C        2.6828370169         5.2306039360        -1.5079868348 
H        3.1681153799         5.5226479110        -0.5618766792 
O        3.6511701938         5.1493040345        -2.5616698060 
H        1.8971064204         5.9605396416        -1.7503193310 
H        3.6416148022         6.0149186548        -3.0892993777 
