         114

C        2.9776904473         0.2118875291         1.0746030867 
H        3.7983187034        -0.1875141868         1.6914204122 
H        2.4299277107        -0.6274034519         0.6175819449 
H        3.4106876341         0.8213375428         0.2711106624 
O        2.0957529921         1.0512602680         1.8329498784 
H        1.6485935822         0.4763803511         2.5335484237 
H        2.8778372320         2.2868475177         2.5383002481 
O        3.4009953122         3.0418899686         2.9581146269 
C        4.2441999871         3.6306706873         1.9567481907 
H        4.7231427851         4.5149415110         2.3965139637 
H        5.0227001752         2.9199562596         1.6381962050 
H        3.6621623520         3.9505881212         1.0770131870 
C        0.0584381864         0.1009343921         4.5906261697 
H       -0.7200620017        -0.6097800356         4.9091781554 
H       -0.4205046116         0.9852052157         4.1508603967 
H        0.6404758215         0.4208518259         5.4703611734 
O        0.9016428613        -0.4878463267         3.5892597334 
H        1.4248009415        -1.2428887775         4.0090741123 
H        0.0743243653         4.5149415110         2.3965139637 
C       -0.4046184327         3.6306706873         1.9567481907 
O       -1.2478231076         3.0418899686         2.9581146269 
H        0.3738817554         2.9199562596         1.6381962050 
H       -0.9866560678         3.9505881212         1.0770131870 
H       -1.7709811878         2.2868475177         2.5383002481 
C       -2.9776904473        -3.3178487662        -1.0746030867 
O       -2.0957529921        -2.4784760272        -1.8329498784 
H       -3.7983187034        -3.7172504820        -1.6914204122 
H       -2.4299277107        -4.1571397472        -0.6175819449 
H       -3.4106876341        -2.7083987524        -0.2711106624 
H       -1.6485935822        -3.0533559442        -2.5335484237 
H       -0.5043194701        -0.1875141868        -4.8559539482 
C       -1.3249477261         0.2118875291        -5.4727712737 
H       -1.8727104628        -0.6274034519        -5.9297924155 
H       -0.8919505394         0.8213375428        -6.2762636979 
O       -2.2068851813         1.0512602680        -4.7144244819 
H       -2.6540445913         0.4763803511        -4.0138259366 
H       -2.8778372320        -1.2428887775        -2.5383002481 
O       -3.4009953122        -0.4878463267        -2.9581146269 
C       -4.2441999871         0.1009343921        -1.9567481907 
H       -5.0227001752        -0.6097800356        -1.6381962050 
H       -4.7231427851         0.9852052157        -2.3965139637 
H       -3.6621623520         0.4208518259        -1.0770131870 
H       -0.3738817554        -0.6097800356        -1.6381962050 
C        0.4046184327         0.1009343921        -1.9567481907 
H       -0.0743243653         0.9852052157        -2.3965139637 
H        0.9866560678         0.4208518259        -1.0770131870 
O        1.2478231076        -0.4878463267        -2.9581146269 
H        1.7709811878        -1.2428887775        -2.5383002481 
H       -2.2188907091        -0.6274034519         0.6175819449 
C       -1.6711279725         0.2118875291         1.0746030867 
H       -0.8504997164        -0.1875141868         1.6914204122 
H       -1.2381307857         0.8213375428         0.2711106624 
O       -2.5530654277         1.0512602680         1.8329498784 
H       -3.0002248376         0.4763803511         2.5335484237 
O       -3.7471755585        -0.4878463267         3.5892597334 
C       -4.5903802334         0.1009343921         4.5906261697 
H       -3.2240174783        -1.2428887775         4.0090741123 
H       -5.3688804215        -0.6097800356         4.9091781554 
H       -5.0693230314         0.9852052157         4.1508603967 
H       -4.0083425983         0.4208518259         5.4703611734 
O       -1.2478231076        -4.0175826219         2.9581146269 
H       -1.7709811878        -4.7726250728         2.5383002481 
C       -0.4046184327        -3.4288019032         1.9567481907 
H        0.0743243653        -2.5445310795         2.3965139637 
H        0.3738817554        -4.1395163309         1.6381962050 
H       -0.9866560678        -3.1088844693         1.0770131870 
C       -2.9776904473         3.7416238243        -1.0746030867 
O       -2.0957529921         4.5809965633        -1.8329498784 
H       -3.7983187034         3.3422221085        -1.6914204122 
H       -2.4299277107         2.9023328433        -0.6175819449 
H       -3.4106876341         4.3510738381        -0.2711106624 
H       -1.6485935822         4.0061166463        -2.5335484237 
H       -1.4248009415         2.2868475177        -4.0090741123 
O       -0.9016428613         3.0418899686        -3.5892597334 
C       -0.0584381864         3.6306706873        -4.5906261697 
H        0.4205046116         4.5149415110        -4.1508603967 
H        0.7200620017         2.9199562596        -4.9091781554 
H       -0.6404758215         3.9505881212        -5.4703611734 
C        1.6711279725        -3.3178487662        -1.0746030867 
O        2.5530654277        -2.4784760272        -1.8329498784 
H        0.8504997164        -3.7172504820        -1.6914204122 
H        2.2188907091        -4.1571397472        -0.6175819449 
H        1.2381307857        -2.7083987524        -0.2711106624 
H        3.0002248376        -3.0533559442        -2.5335484237 
H        0.4205046116        -2.5445310795        -4.1508603967 
C       -0.0584381864        -3.4288019032        -4.5906261697 
O       -0.9016428613        -4.0175826219        -3.5892597334 
H        0.7200620017        -4.1395163309        -4.9091781554 
H       -0.6404758215        -3.1088844693        -5.4703611734 
H       -1.4248009415        -4.7726250728        -4.0090741123 
H        4.2749366644        -0.6097800356        -1.6381962050 
C        5.0534368525         0.1009343921        -1.9567481907 
H        4.5744940545         0.9852052157        -2.3965139637 
H        5.6354744876         0.4208518259        -1.0770131870 
O        5.8966415274        -0.4878463267        -2.9581146269 
H        6.4197996076        -1.2428887775        -2.5383002481 
H        3.6621623520        -3.1088844693         1.0770131870 
C        4.2441999871        -3.4288019032         1.9567481907 
O        3.4009953122        -4.0175826219         2.9581146269 
H        4.7231427851        -2.5445310795         2.3965139637 
H        5.0227001752        -4.1395163309         1.6381962050 
H        2.8778372320        -4.7726250728         2.5383002481 
C        1.6711279725         3.7416238243        -1.0746030867 
O        2.5530654277         4.5809965633        -1.8329498784 
H        0.8504997164         3.3422221085        -1.6914204122 
H        2.2188907091         2.9023328433        -0.6175819449 
H        1.2381307857         4.3510738381        -0.2711106624 
H        3.0002248376         4.0061166463        -2.5335484237 
H        1.9947738285         0.4763803511        -4.0138259366 
O        2.4419332385         1.0512602680        -4.7144244819 
C        3.3238706937         0.2118875291        -5.4727712737 
H        4.1444989497        -0.1875141868        -4.8559539482 
H        2.7761079570        -0.6274034519        -5.9297924155 
H        3.7568678804         0.8213375428        -6.2762636979 
