          84

C        0.4773758445         1.6662849551         1.7028044813 
H        0.8119339322         1.3078084123         2.6893772153 
O        0.5712672442         3.0956206662         1.6185972377 
H       -0.5510225755         1.3117069524         1.5273405217 
H        1.1383933391         1.2303650355         0.9432886252 
H        0.1247081678         3.4937942727         2.4359931819 
H        3.0688631956         2.2994299873         2.5892261925 
C        4.0972616156         1.9448519846         2.7646901521 
O        4.1911530153         0.5155162736         2.6804829085 
H        4.4318197032         2.3033285274         3.7512628861 
H        4.7582791102         2.3807719042         2.0051742959 
H        3.7445939389         0.1173426671         3.4978788527 
C       -0.4773758445        -1.6662849551        -2.5447382018 
H       -0.8119339322        -1.3078084123        -1.5581654678 
H        0.5510225755        -1.3117069524        -2.7202021614 
H       -1.1383933391        -1.2303650355        -3.3042540579 
O       -0.5712672442        -3.0956206662        -2.6289454454 
H       -0.1247081678        -3.4937942727        -1.8115495012 
C       -4.0972616156        -1.9448519846        -1.4828525310 
O       -4.1911530153        -0.5155162736        -1.5670597746 
H       -4.4318197032        -2.3033285274        -0.4962797970 
H       -3.0688631956        -2.2994299873        -1.6583164906 
H       -4.7582791102        -2.3807719042        -2.2423683872 
H       -3.7445939389        -0.1173426671        -0.7496638304 
C       -0.4773758445        -1.6662849551         1.7028044813 
H       -0.8119339322        -1.3078084123         2.6893772153 
H        0.5510225755        -1.3117069524         1.5273405217 
H       -1.1383933391        -1.2303650355         0.9432886252 
O       -0.5712672442        -3.0956206662         1.6185972377 
H       -0.1247081678        -3.4937942727         2.4359931819 
H       -3.0688631956        -2.2994299873         2.5892261925 
C       -4.0972616156        -1.9448519846         2.7646901521 
O       -4.1911530153        -0.5155162736         2.6804829085 
H       -4.4318197032        -2.3033285274         3.7512628861 
H       -4.7582791102        -2.3807719042         2.0051742959 
H       -3.7445939389        -0.1173426671         3.4978788527 
C       -3.1425099265         1.9448519846        -3.6066238726 
H       -2.4814924320         2.3807719042        -4.3661397287 
O       -3.0486185269         0.5155162736        -3.6908311161 
H       -2.8079518389         2.3033285274        -2.6200511386 
H       -4.1709083466         2.2994299873        -3.7820878322 
H       -3.4951776033         0.1173426671        -2.8734351720 
H       -2.4814924320         2.3807719042        -0.1185970456 
C       -3.1425099265         1.9448519846         0.6409188105 
O       -3.0486185269         0.5155162736         0.5567115670 
H       -2.8079518389         2.3033285274         1.6274915445 
H       -4.1709083466         2.2994299873         0.4654548509 
H       -3.4951776033         0.1173426671         1.3741075111 
H       -0.5510225755         1.3117069524        -2.7202021614 
C        0.4773758445         1.6662849551        -2.5447382018 
H        0.8119339322         1.3078084123        -1.5581654678 
O        0.5712672442         3.0956206662        -2.6289454454 
H        1.1383933391         1.2303650355        -3.3042540579 
H        0.1247081678         3.4937942727        -1.8115495012 
O       -0.5712672442         4.1266532133        -0.5051741038 
C       -0.4773758445         5.5559889244        -0.4209668602 
H       -0.1247081678         3.7284796068         0.3122218404 
H       -0.8119339322         5.9144654671         0.5656058738 
H        0.5510225755         5.9105669270        -0.5964308198 
H       -1.1383933391         5.9919088439        -1.1804827164 
C        3.1425099265        -1.9448519846        -3.6066238726 
H        2.4814924320        -2.3807719042        -4.3661397287 
O        3.0486185269        -0.5155162736        -3.6908311161 
H        2.8079518389        -2.3033285274        -2.6200511386 
H        4.1709083466        -2.2994299873        -3.7820878322 
H        3.4951776033        -0.1173426671        -2.8734351720 
H        2.4814924320        -2.3807719042        -0.1185970456 
C        3.1425099265        -1.9448519846         0.6409188105 
O        3.0486185269        -0.5155162736         0.5567115670 
H        2.8079518389        -2.3033285274         1.6274915445 
H        4.1709083466        -2.2994299873         0.4654548509 
H        3.4951776033        -0.1173426671         1.3741075111 
O        0.5712672442        -4.1266532133        -0.5051741038 
H        0.1247081678        -3.7284796068         0.3122218404 
C        0.4773758445        -5.5559889244        -0.4209668602 
H       -0.5510225755        -5.9105669270        -0.5964308198 
H        0.8119339322        -5.9144654671         0.5656058738 
H        1.1383933391        -5.9919088439        -1.1804827164 
C        4.0972616156         1.9448519846        -1.4828525310 
O        4.1911530153         0.5155162736        -1.5670597746 
H        4.4318197032         2.3033285274        -0.4962797970 
H        3.0688631956         2.2994299873        -1.6583164906 
H        4.7582791102         2.3807719042        -2.2423683872 
H        3.7445939389         0.1173426671        -0.7496638304 
