         132

H        0.8424841152         0.4356004531         4.9434604629 
C        1.9013539094         0.3676857685         5.2329158150 
H        2.1290486832        -0.6722427337         5.5038479840 
H        2.0756568969         1.0078413899         6.1132824253 
O        2.7609524374         0.7549654230         4.1558723728 
H        2.3180089784         1.4856671674         3.6074580961 
H        1.2823773075         3.3245729162         3.2261925372 
O        1.7347718626         2.6000845030         2.6771256570 
C        0.8911476130         2.2206849078         1.5842343688 
H       -0.1717230416         2.2783842201         1.8622994248 
H        1.1283732585         1.1847999028         1.3043415979 
H        1.0709159889         2.8718740587         0.7124374599 
H        3.9679516405         2.2783842201         1.8622994248 
C        5.0308222951         2.2206849078         1.5842343688 
H        5.2680479406         1.1847999028         1.3043415979 
H        5.2105906710         2.8718740587         0.7124374599 
O        5.8744465447         2.6000845030         2.6771256570 
H        5.4220519896         3.3245729162         3.2261925372 
O       -0.6911150963        -2.9260898279        -4.1558723728 
C        0.1684834316        -3.3133694825        -5.2329158150 
H       -0.2481716373        -2.1953880836        -3.6074580961 
H       -0.0592113422        -4.3532979846        -5.5038479840 
H       -0.0058195558        -2.6732138610        -6.1132824253 
H        1.2273532259        -3.2454547979        -4.9434604629 
H       -3.3522146486        -0.3564823347        -3.2261925372 
O       -3.8046092037        -1.0809707479        -2.6771256570 
C       -2.9609849541        -1.4603703432        -1.5842343688 
H       -3.1982105995        -2.4962553482        -1.3043415979 
H       -3.1407533300        -0.8091811922        -0.7124374599 
H       -1.8981142995        -1.4026710308        -1.8622994248 
H       -1.0709159889        -4.4902364432        -0.7124374599 
C       -0.8911476130        -5.1414255941        -1.5842343688 
H        0.1717230416        -5.0837262818        -1.8622994248 
H       -1.1283732585        -6.1773105991        -1.3043415979 
O       -1.7347718626        -4.7620259989        -2.6771256570 
H       -1.2823773075        -4.0375375857        -3.2261925372 
H        0.2481716373        -2.1953880836         3.6074580961 
O        0.6911150963        -2.9260898279         4.1558723728 
C       -0.1684834316        -3.3133694825         5.2329158150 
H        0.0592113422        -4.3532979846         5.5038479840 
H        0.0058195558        -2.6732138610         6.1132824253 
H       -1.2273532259        -3.2454547979         4.9434604629 
H       -0.7874600335        -0.3564823347         3.2261925372 
O       -0.3350654784        -1.0809707479         2.6771256570 
C       -1.1786897280        -1.4603703432         1.5842343688 
H       -2.2415603826        -1.4026710308         1.8622994248 
H       -0.9414640826        -2.4962553482         1.3043415979 
H       -0.9989213521        -0.8091811922         0.7124374599 
H       -0.8424841152         0.4356004531        -4.9434604629 
C       -1.9013539094         0.3676857685        -5.2329158150 
O       -2.7609524374         0.7549654230        -4.1558723728 
H       -2.1290486832        -0.6722427337        -5.5038479840 
H       -2.0756568969         1.0078413899        -6.1132824253 
H       -2.3180089784         1.4856671674        -3.6074580961 
H       -1.2823773075         3.3245729162        -3.2261925372 
O       -1.7347718626         2.6000845030        -2.6771256570 
C       -0.8911476130         2.2206849078        -1.5842343688 
H        0.1717230416         2.2783842201        -1.8622994248 
H       -1.1283732585         1.1847999028        -1.3043415979 
H       -1.0709159889         2.8718740587        -0.7124374599 
H       -3.9679516405         2.2783842201        -1.8622994248 
C       -5.0308222951         2.2206849078        -1.5842343688 
H       -5.2680479406         1.1847999028        -1.3043415979 
O       -5.8744465447         2.6000845030        -2.6771256570 
H       -5.2105906710         2.8718740587        -0.7124374599 
H       -5.4220519896         3.3245729162        -3.2261925372 
O       -1.3787222447         0.7549654230         4.1558723728 
H       -1.8216657037         1.4856671674         3.6074580961 
C       -2.2383207727         0.3676857685         5.2329158150 
H       -2.0106259989        -0.6722427337         5.5038479840 
H       -2.0640177852         1.0078413899         6.1132824253 
H       -3.2971905669         0.4356004531         4.9434604629 
O       -2.4049028195         2.6000845030         2.6771256570 
C       -3.2485270691         2.2206849078         1.5842343688 
H       -2.8572973746         3.3245729162         3.2261925372 
H       -4.3113977237         2.2783842201         1.8622994248 
H       -3.0113014236         1.1847999028         1.3043415979 
H       -3.0687586932         2.8718740587         0.7124374599 
H       -0.9414640826         4.8658551537         1.3043415979 
C       -1.1786897280         5.9017401587         1.5842343688 
H       -2.2415603826         5.9594394711         1.8622994248 
H       -0.9989213521         6.5529293097         0.7124374599 
O       -0.3350654784         6.2811397540         2.6771256570 
H       -0.7874600335         7.0056281672         3.2261925372 
H        0.7874600335        -0.3564823347        -3.2261925372 
O        0.3350654784        -1.0809707479        -2.6771256570 
C        1.1786897280        -1.4603703432        -1.5842343688 
H        0.9414640826        -2.4962553482        -1.3043415979 
H        0.9989213521        -0.8091811922        -0.7124374599 
H        2.2415603826        -1.4026710308        -1.8622994248 
H        3.3522146486        -0.3564823347         3.2261925372 
O        3.8046092037        -1.0809707479         2.6771256570 
C        2.9609849541        -1.4603703432         1.5842343688 
H        1.8981142995        -1.4026710308         1.8622994248 
H        3.1982105995        -2.4962553482         1.3043415979 
H        3.1407533300        -0.8091811922         0.7124374599 
H        1.0709159889        -4.4902364432         0.7124374599 
C        0.8911476130        -5.1414255941         1.5842343688 
H       -0.1717230416        -5.0837262818         1.8622994248 
H        1.1283732585        -6.1773105991         1.3043415979 
O        1.7347718626        -4.7620259989         2.6771256570 
H        1.2823773075        -4.0375375857         3.2261925372 
O        1.3787222447         0.7549654230        -4.1558723728 
C        2.2383207727         0.3676857685        -5.2329158150 
H        1.8216657037         1.4856671674        -3.6074580961 
H        2.0106259989        -0.6722427337        -5.5038479840 
H        2.0640177852         1.0078413899        -6.1132824253 
H        3.2971905669         0.4356004531        -4.9434604629 
O        2.4049028195         2.6000845030        -2.6771256570 
C        3.2485270691         2.2206849078        -1.5842343688 
H        2.8572973746         3.3245729162        -3.2261925372 
H        4.3113977237         2.2783842201        -1.8622994248 
H        3.0113014236         1.1847999028        -1.3043415979 
H        3.0687586932         2.8718740587        -0.7124374599 
H        0.9414640826         4.8658551537        -1.3043415979 
C        1.1786897280         5.9017401587        -1.5842343688 
O        0.3350654784         6.2811397540        -2.6771256570 
H        0.9989213521         6.5529293097        -0.7124374599 
H        2.2415603826         5.9594394711        -1.8622994248 
H        0.7874600335         7.0056281672        -3.2261925372 
H        5.1385960342        -0.8091811922        -0.7124374599 
C        5.3183644101        -1.4603703432        -1.5842343688 
H        5.0811387647        -2.4962553482        -1.3043415979 
O        4.4747401605        -1.0809707479        -2.6771256570 
H        6.3812350647        -1.4026710308        -1.8622994248 
H        4.9271347156        -0.3564823347        -3.2261925372 
H       -5.1385960342        -0.8091811922         0.7124374599 
C       -5.3183644101        -1.4603703432         1.5842343688 
H       -6.3812350647        -1.4026710308         1.8622994248 
H       -5.0811387647        -2.4962553482         1.3043415979 
O       -4.4747401605        -1.0809707479         2.6771256570 
H       -4.9271347156        -0.3564823347         3.2261925372 
