         120

H        0.6406615063         3.8502026529         0.9341552626 
O        0.1714167143         3.3133191814         1.6524703833 
C        1.0153010096         2.2203569535         2.0366758251 
H        2.0788284476         2.4906207012         1.9611216412 
H        0.8208532833         1.3390448092         1.4022899998 
H        0.7905907474         1.9579846503         3.0787930300 
C       -2.6425421916        -0.9795669708        -3.0266059858 
H       -1.8355611525        -0.7021302932        -3.7187150266 
O       -3.3718412803        -2.0724673528        -3.5985042957 
H       -3.3008969308        -0.1061604539        -2.8825848894 
H       -2.1991771527        -1.2573467723        -2.0592805806 
H       -3.7940389062        -2.6075417446        -2.8502360761 
H       -4.0797818305        -0.7021302932        -0.0247356737 
C       -4.8867628696        -0.9795669708         0.6673733671 
O       -5.6160619583        -2.0724673528         0.0954750573 
H       -5.5451176088        -0.1061604539         0.8113944636 
H       -4.4433978307        -1.2573467723         1.6346987724 
H       -6.0382595842        -2.6075417446         0.8437432769 
H       -0.6406615063        -2.9882855251        -0.9341552626 
O       -0.1714167143        -3.5251689966        -1.6524703833 
C       -1.0153010096        -4.6181312245        -2.0366758251 
H       -0.8208532833        -5.4994433689        -1.4022899998 
H       -2.0788284476        -4.3478674768        -1.9611216412 
H       -0.7905907474        -4.8805035278        -3.0787930300 
C       -0.7272713492        -0.9795669708         0.6673733671 
H        0.0797096899        -0.7021302932        -0.0247356737 
O       -1.4565704379        -2.0724673528         0.0954750573 
H       -1.3856260884        -0.1061604539         0.8113944636 
H       -0.2839063103        -1.2573467723         1.6346987724 
H       -1.8787680638        -2.6075417446         0.8437432769 
H       -2.1645109881        -0.7021302932         3.6692436793 
C       -2.9714920272        -0.9795669708         4.3613527201 
O       -3.7007911159        -2.0724673528         3.7894544102 
H       -3.6298467664        -0.1061604539         4.5053738165 
H       -2.5281269884        -1.2573467723         5.3286781253 
H       -4.1229887418        -2.6075417446         4.5377226298 
H        1.2746093361        -2.9882855251         2.7598240904 
O        1.7438541281        -3.5251689966         2.0415089697 
C        0.8999698328        -4.6181312245         1.6573035279 
H        1.0944175591        -5.4994433689         2.2916893532 
H       -0.1635576052        -4.3478674768         1.7328577118 
H        1.1246800950        -4.8805035278         0.6151863229 
O       -2.4156373923        -3.5251689966         2.0415089697 
H       -2.8848821843        -2.9882855251         2.7598240904 
C       -3.2595216876        -4.6181312245         1.6573035279 
H       -3.0650739613        -5.4994433689         2.2916893532 
H       -4.3230491256        -4.3478674768         1.7328577118 
H       -3.0348114254        -4.8805035278         0.6151863229 
C        1.1879994932        -0.9795669708         4.3613527201 
H        1.9949805323        -0.7021302932         3.6692436793 
O        0.4587004045        -2.0724673528         3.7894544102 
H        0.5296447540        -0.1061604539         4.5053738165 
H        1.6313645320        -1.2573467723         5.3286781253 
H        0.0365027786        -2.6075417446         4.5377226298 
H       -2.2807234566         4.2309464334        -0.8437432769 
O       -2.7029210825         4.7660208253        -0.0954750573 
C       -3.4322201712         5.8589212072        -0.6673733671 
H       -4.2392012103         6.1363578848         0.0247356737 
H       -2.7738654320         6.7323277242        -0.8113944636 
H       -3.8755852101         5.5811414058        -1.6346987724 
O       -1.7438541281         3.3133191814        -2.0415089697 
C       -0.8999698328         2.2203569535        -1.6573035279 
H       -1.2746093361         3.8502026529        -2.7598240904 
H        0.1635576052         2.4906207012        -1.7328577118 
H       -1.0944175591         1.3390448092        -2.2916893532 
H       -1.1246800950         1.9579846503        -0.6151863229 
H       -3.9959339152         2.4906207012        -1.7328577118 
C       -5.0594613532         2.2203569535        -1.6573035279 
H       -5.2539090795         1.3390448092        -2.2916893532 
H       -5.2841716154         1.9579846503        -0.6151863229 
O       -5.9033456485         3.3133191814        -2.0415089697 
H       -5.4341008565         3.8502026529        -2.7598240904 
H       -0.3654526142         4.2309464334         2.8502360761 
O       -0.7876502401         4.7660208253         3.5985042957 
C       -1.5169493288         5.8589212072         3.0266059858 
H       -2.3239303679         6.1363578848         3.7187150266 
H       -0.8585945896         6.7323277242         2.8825848894 
H       -1.9603143677         5.5811414058         2.0592805806 
H       -3.3386382371         1.3390448092         1.4022899998 
C       -3.1441905108         2.2203569535         2.0366758251 
H       -2.0806630728         2.4906207012         1.9611216412 
H       -3.3689007730         1.9579846503         3.0787930300 
O       -3.9880748061         3.3133191814         1.6524703833 
H       -3.5188300141         3.8502026529         0.9341552626 
C        1.5169493288        -0.9795669708        -3.0266059858 
H        2.3239303679        -0.7021302932        -3.7187150266 
O        0.7876502401        -2.0724673528        -3.5985042957 
H        0.8585945896        -0.1061604539        -2.8825848894 
H        1.9603143677        -1.2573467723        -2.0592805806 
H        0.3654526142        -2.6075417446        -2.8502360761 
H        3.5188300141        -2.9882855251        -0.9341552626 
O        3.9880748061        -3.5251689966        -1.6524703833 
C        3.1441905108        -4.6181312245        -2.0366758251 
H        3.3386382371        -5.4994433689        -1.4022899998 
H        2.0806630728        -4.3478674768        -1.9611216412 
H        3.3689007730        -4.8805035278        -3.0787930300 
C        3.4322201712        -0.9795669708         0.6673733671 
H        4.2392012103        -0.7021302932        -0.0247356737 
O        2.7029210825        -2.0724673528         0.0954750573 
H        2.7738654320        -0.1061604539         0.8113944636 
H        3.8755852101        -1.2573467723         1.6346987724 
H        2.2807234566        -2.6075417446         0.8437432769 
O        1.4565704379         4.7660208253        -0.0954750573 
H        1.8787680638         4.2309464334        -0.8437432769 
C        0.7272713492         5.8589212072        -0.6673733671 
H       -0.0797096899         6.1363578848         0.0247356737 
H        1.3856260884         6.7323277242        -0.8113944636 
H        0.2839063103         5.5811414058        -1.6346987724 
O        2.4156373923         3.3133191814        -2.0415089697 
C        3.2595216876         2.2203569535        -1.6573035279 
H        2.8848821843         3.8502026529        -2.7598240904 
H        4.3230491256         2.4906207012        -1.7328577118 
H        3.0650739613         1.3390448092        -2.2916893532 
H        3.0348114254         1.9579846503        -0.6151863229 
H        1.1195405830         1.9579846503        -4.3091656759 
C        1.3442508452         2.2203569535        -5.3512828808 
H        2.4077782832         2.4906207012        -5.4268370647 
H        1.1498031190         1.3390448092        -5.9856687061 
O        0.5003665499         3.3133191814        -5.7354883226 
H        0.9696113419         3.8502026529        -6.4538034433 
