         102

C        1.1766437324         2.4451623919         3.2524961764 
O        0.4456651099         1.6148970363         2.3380637422 
H        1.3312145443         1.9430811640         4.2195239354 
H        2.1563914229         2.6528976429         2.8012849115 
H        0.6577920791         3.4019178618         3.4211170914 
H       -0.3597505075         1.2260799247         2.8112636622 
H        3.7028702879         0.6577920791         0.0581561653 
C        4.6596257578         1.1766437324        -0.1104647496 
H        5.1617069857         1.3312145443         0.8565630093 
H        4.4518905068         2.1563914229        -0.5616760146 
O        5.4898911134         0.4456651099        -1.0248971838 
H        5.8787082250        -0.3597505075        -0.5516972639 
H        1.2260799247         0.3597505075         1.6902766868 
O        1.6148970363        -0.4456651099         1.2170767669 
C        2.4451623919        -1.1766437324         2.1315092011 
H        2.6528976429        -2.1563914229         1.6802979361 
H        1.9430811640        -1.3312145443         3.0985369600 
H        3.4019178618        -0.6577920791         2.3001301160 
C       -1.1766437324        -2.4451623919        -3.4734256757 
H       -2.1563914229        -2.6528976429        -3.9246369406 
H       -0.6577920791        -3.4019178618        -3.3048047607 
O       -0.4456651099        -1.6148970363        -4.3878581099 
H       -1.3312145443        -1.9430811640        -2.5063979167 
H        0.3597505075        -1.2260799247        -3.9146581899 
H       -3.7028702879        -0.6577920791        -2.1838177854 
C       -4.6596257578        -1.1766437324        -2.3524387003 
O       -5.4898911134        -0.4456651099        -3.2668711345 
H       -4.4518905068        -2.1563914229        -2.8036499653 
H       -5.1617069857        -1.3312145443        -1.3854109414 
H       -5.8787082250         0.3597505075        -2.7936712146 
H       -1.2260799247        -0.3597505075        -0.5516972639 
O       -1.6148970363         0.4456651099        -1.0248971838 
C       -2.4451623919         1.1766437324        -0.1104647496 
H       -3.4019178618         0.6577920791         0.0581561653 
H       -1.9430811640         1.3312145443         0.8565630093 
H       -2.6528976429         2.1563914229        -0.5616760146 
C       -4.6596257578        -1.1766437324         2.1315092011 
O       -5.4898911134        -0.4456651099         1.2170767669 
H       -4.4518905068        -2.1563914229         1.6802979361 
H       -5.1617069857        -1.3312145443         3.0985369600 
H       -3.7028702879        -0.6577920791         2.3001301160 
H       -5.8787082250         0.3597505075         1.6902766868 
C       -1.1766437324        -2.4451623919         1.0105222257 
H       -2.1563914229        -2.6528976429         0.5593109608 
H       -0.6577920791        -3.4019178618         1.1791431407 
O       -0.4456651099        -1.6148970363         0.0960897915 
H       -1.3312145443        -1.9430811640         1.9775499847 
H        0.3597505075        -1.2260799247         0.5692897115 
H       -1.2260799247        -0.3597505075         3.9322506375 
O       -1.6148970363         0.4456651099         3.4590507176 
C       -2.4451623919         1.1766437324         4.3734831518 
H       -3.4019178618         0.6577920791         4.5421040667 
H       -1.9430811640         1.3312145443         5.3405109107 
H       -2.6528976429         2.1563914229         3.9222718868 
O       -0.4456651099        -1.6148970363         4.5800376929 
H        0.3597505075        -1.2260799247         5.0532376129 
C       -1.1766437324        -2.4451623919         5.4944701271 
H       -2.1563914229        -2.6528976429         5.0432588622 
H       -0.6577920791        -3.4019178618         5.6630910421 
H       -1.3312145443        -1.9430811640         6.4614978861 
H       -1.9430811640         1.3312145443        -3.6273848921 
C       -2.4451623919         1.1766437324        -4.5944126510 
H       -3.4019178618         0.6577920791        -4.4257917361 
H       -2.6528976429         2.1563914229        -5.0456239160 
O       -1.6148970363         0.4456651099        -5.5088450852 
H       -1.2260799247        -0.3597505075        -5.0356451653 
H       -0.6577920791         3.7028702879        -3.3048047607 
C       -1.1766437324         4.6596257578        -3.4734256757 
H       -2.1563914229         4.4518905068        -3.9246369406 
O       -0.4456651099         5.4898911134        -4.3878581099 
H       -1.3312145443         5.1617069857        -2.5063979167 
H        0.3597505075         5.8787082250        -3.9146581899 
H       -0.3597505075         1.2260799247        -1.6726842392 
O        0.4456651099         1.6148970363        -2.1458841592 
C        1.1766437324         2.4451623919        -1.2314517250 
H        1.3312145443         1.9430811640        -0.2644239660 
H        2.1563914229         2.6528976429        -1.6826629899 
H        0.6577920791         3.4019178618        -1.0628308100 
C       -1.1766437324         4.6596257578         1.0105222257 
H       -2.1563914229         4.4518905068         0.5593109608 
H       -0.6577920791         3.7028702879         1.1791431407 
O       -0.4456651099         5.4898911134         0.0960897915 
H       -1.3312145443         5.1617069857         1.9775499847 
H        0.3597505075         5.8787082250         0.5692897115 
C        2.4451623919        -1.1766437324        -2.3524387003 
O        1.6148970363        -0.4456651099        -3.2668711345 
H        2.6528976429        -2.1563914229        -2.8036499653 
H        1.9430811640        -1.3312145443        -1.3854109414 
H        3.4019178618        -0.6577920791        -2.1838177854 
H        1.2260799247         0.3597505075        -2.7936712146 
C        1.1766437324        -4.6596257578        -1.2314517250 
O        0.4456651099        -5.4898911134        -2.1458841592 
H        1.3312145443        -5.1617069857        -0.2644239660 
H        2.1563914229        -4.4518905068        -1.6826629899 
H        0.6577920791        -3.7028702879        -1.0628308100 
H       -0.3597505075        -5.8787082250        -1.6726842392 
H        0.6577920791        -3.7028702879         3.4211170914 
C        1.1766437324        -4.6596257578         3.2524961764 
O        0.4456651099        -5.4898911134         2.3380637422 
H        1.3312145443        -5.1617069857         4.2195239354 
H        2.1563914229        -4.4518905068         2.8012849115 
H       -0.3597505075        -5.8787082250         2.8112636622 
