         108

C        2.3782179475         1.8995521488         1.1505306379 
H        3.1713519386         2.5221849052         1.5994620999 
H        1.6042090091         1.7114269009         1.9146624017 
H        1.9189412842         2.4631700941         0.3274031218 
O        2.9125410328         0.6962963584         0.6181036471 
H        3.2839558578         0.1417508857         1.3700713707 
C       -2.3782179475        -1.8995521488        -1.1505306379 
O       -2.9125410328        -0.6962963584        -0.6181036471 
H       -1.9189412842        -2.4631700941        -0.3274031218 
H       -1.6042090091        -1.7114269009        -1.9146624017 
H       -3.1713519386        -2.5221849052        -1.5994620999 
H       -3.2839558578        -0.1417508857        -1.3700713707 
C       -0.5434964015        -1.8995521488         2.9274183646 
O       -1.0778194868        -0.6962963584         3.4598453553 
H       -0.0842197382        -2.4631700941         3.7505458807 
H        0.2305125369        -1.7114269009         2.1632866008 
H       -1.3366303926        -2.5221849052         2.4784869026 
H       -1.4492343118        -0.1417508857         2.7078776317 
H       -0.9030590015        -4.7758870814         1.5994620999 
C       -1.6961929925        -5.3985198379         1.1505306379 
H       -2.1554696558        -4.8349018926         0.3274031218 
O       -1.1618699073        -6.6017756283         0.6181036471 
H       -2.4702019310        -5.5866450857         1.9146624017 
H       -0.7904550823        -7.1563211009         1.3700713707 
O       -4.3189200743        -0.6962963584         2.6570781484 
H       -3.9475052493        -0.1417508857         3.4090458720 
C       -4.8532431596        -1.8995521488         3.1895051391 
H       -5.3125198229        -2.4631700941         2.3663776230 
H       -5.6272520981        -1.7114269009         3.9536369029 
H       -4.0601091686        -2.5221849052         3.6384366011 
C       -3.2955787205         1.8995521488        -3.1895051391 
H       -4.0887127115         2.5221849052        -3.6384366011 
H       -2.8363020572         2.4631700941        -2.3663776230 
O       -3.8299018058         0.6962963584        -2.6570781484 
H       -2.5215697820         1.7114269009        -3.9536369029 
H       -4.2013166308         0.1417508857        -3.4090458720 
H       -1.8204197745         4.7758870814        -0.4395124014 
C       -2.6135537655         5.3985198379        -0.8884438634 
H       -3.3875627040         5.5866450857        -0.1243120995 
O       -2.0792306803         6.6017756283        -1.4208708541 
H       -3.0728304288         4.8349018926        -1.7115713795 
H       -1.7078158553         7.1563211009        -0.6689031305 
C       -1.4608571745         1.8995521488         0.8884438634 
H       -2.2539911656         2.5221849052         0.4395124014 
H       -1.0015805112         2.4631700941         1.7115713795 
O       -1.9951802598         0.6962963584         1.4208708541 
H       -0.6868482361         1.7114269009         0.1243120995 
H       -2.3665950848         0.1417508857         0.6689031305 
H       -4.8648660223         0.1417508857         1.3700713707 
O       -5.2362808473         0.6962963584         0.6181036471 
C       -5.7706039326         1.8995521488         1.1505306379 
H       -4.9774699415         2.5221849052         1.5994620999 
H       -6.5446128710         1.7114269009         1.9146624017 
H       -6.2298805959         2.4631700941         0.3274031218 
H       -0.4192696196         2.5221849052         4.5174614038 
C        0.3738643714         1.8995521488         4.9663928658 
H        0.8331410347         2.4631700941         5.7895203819 
O       -0.1604587138         0.6962963584         5.4988198565 
H        1.1478733099         1.7114269009         4.2022611020 
H       -0.5318735388         0.1417508857         4.7468521330 
C        1.4608571745        -1.8995521488        -0.8884438634 
O        1.9951802598        -0.6962963584        -1.4208708541 
H        1.0015805112        -2.4631700941        -1.7115713795 
H        0.6868482361        -1.7114269009        -0.1243120995 
H        2.2539911656        -2.5221849052        -0.4395124014 
H        2.3665950848        -0.1417508857        -0.6689031305 
H        4.8648660223        -0.1417508857        -1.3700713707 
O        5.2362808473        -0.6962963584        -0.6181036471 
C        5.7706039326        -1.8995521488        -1.1505306379 
H        6.2298805959        -2.4631700941        -0.3274031218 
H        6.5446128710        -1.7114269009        -1.9146624017 
H        4.9774699415        -2.5221849052        -1.5994620999 
C        3.2955787205        -1.8995521488         3.1895051391 
O        3.8299018058        -0.6962963584         2.6570781484 
H        2.8363020572        -2.4631700941         2.3663776230 
H        2.5215697820        -1.7114269009         3.9536369029 
H        4.0887127115        -2.5221849052         3.6384366011 
H        4.2013166308        -0.1417508857         3.4090458720 
H        1.8204197745        -4.7758870814         0.4395124014 
C        2.6135537655        -5.3985198379         0.8884438634 
H        3.0728304288        -4.8349018926         1.7115713795 
O        2.0792306803        -6.6017756283         1.4208708541 
H        3.3875627040        -5.5866450857         0.1243120995 
H        1.7078158553        -7.1563211009         0.6689031305 
C        0.5434964015         1.8995521488        -2.9274183646 
H        1.3366303926         2.5221849052        -2.4784869026 
H       -0.2305125369         1.7114269009        -2.1632866008 
H        0.0842197382         2.4631700941        -3.7505458807 
O        1.0778194868         0.6962963584        -3.4598453553 
H        1.4492343118         0.1417508857        -2.7078776317 
H        0.9030590015         4.7758870814        -1.5994620999 
C        1.6961929925         5.3985198379        -1.1505306379 
O        1.1618699073         6.6017756283        -0.6181036471 
H        2.1554696558         4.8349018926        -0.3274031218 
H        2.4702019310         5.5866450857        -1.9146624017 
H        0.7904550823         7.1563211009        -1.3700713707 
O        4.3189200743         0.6962963584        -2.6570781484 
H        3.9475052493         0.1417508857        -3.4090458720 
C        4.8532431596         1.8995521488        -3.1895051391 
H        4.0601091686         2.5221849052        -3.6384366011 
H        5.3125198229         2.4631700941        -2.3663776230 
H        5.6272520981         1.7114269009        -3.9536369029 
H        0.4192696196        -2.5221849052        -4.5174614038 
C       -0.3738643714        -1.8995521488        -4.9663928658 
O        0.1604587138        -0.6962963584        -5.4988198565 
H       -0.8331410347        -2.4631700941        -5.7895203819 
H       -1.1478733099        -1.7114269009        -4.2022611020 
H        0.5318735388        -0.1417508857        -4.7468521330 
