         132

C        1.5866562532         0.2485853745         4.8906417361 
H        1.2358166212        -0.2930914659         3.9936664762 
H        1.2358166212        -0.2930914659         5.7876169960 
H        1.1231973528         1.2443534005         4.8906417361 
O        2.9918082828         0.4138984546         4.8906417361 
H        3.4380909597        -0.4869957402         4.8906417361 
C        1.5866562532         2.1040456598         1.6302139120 
H        1.1231973528         1.1082776337         1.6302139120 
O        2.9918082828         1.9387325797         1.6302139120 
H        1.2358166212         2.6457225002         0.7332386521 
H        1.2358166212         2.6457225002         2.5271891719 
H        3.4380909597         2.8396267744         1.6302139120 
H        3.6866469740         0.4869957402         1.6302139120 
O        4.1329296509        -0.4138984546         1.6302139120 
C        5.5380816805        -0.2485853745         1.6302139120 
H        5.8889213125         0.2930914659         0.7332386521 
H        5.8889213125         0.2930914659         2.5271891719 
H        6.0015405809        -1.2443534005         1.6302139120 
C       -1.5866562532        -0.2485853745        -4.8906417361 
H       -1.2358166212         0.2930914659        -5.7876169960 
H       -1.2358166212         0.2930914659        -3.9936664762 
O       -2.9918082828        -0.4138984546        -4.8906417361 
H       -1.1231973528        -1.2443534005        -4.8906417361 
H       -3.4380909597         0.4869957402        -4.8906417361 
C       -1.5866562532        -2.1040456598        -1.6302139120 
H       -1.2358166212        -2.6457225002        -2.5271891719 
H       -1.2358166212        -2.6457225002        -0.7332386521 
O       -2.9918082828        -1.9387325797        -1.6302139120 
H       -1.1231973528        -1.1082776337        -1.6302139120 
H       -3.4380909597        -2.8396267744        -1.6302139120 
H       -3.6866469740        -0.4869957402        -1.6302139120 
O       -4.1329296509         0.4138984546        -1.6302139120 
C       -5.5380816805         0.2485853745        -1.6302139120 
H       -5.8889213125        -0.2930914659        -2.5271891719 
H       -5.8889213125        -0.2930914659        -0.7332386521 
H       -6.0015405809         1.2443534005        -1.6302139120 
C       -1.5866562532        -0.2485853745         1.6302139120 
H       -1.2358166212         0.2930914659         0.7332386521 
H       -1.2358166212         0.2930914659         2.5271891719 
O       -2.9918082828        -0.4138984546         1.6302139120 
H       -1.1231973528        -1.2443534005         1.6302139120 
H       -3.4380909597         0.4869957402         1.6302139120 
H       -1.2358166212        -4.4121706026         0.7332386521 
C       -1.5866562532        -4.9538474430         1.6302139120 
H       -1.2358166212        -4.4121706026         2.5271891719 
O       -2.9918082828        -5.1191605231         1.6302139120 
H       -1.1231973528        -5.9496154690         1.6302139120 
H       -3.4380909597        -4.2182663283         1.6302139120 
H       -1.2358166212        -2.6457225002         3.9936664762 
C       -1.5866562532        -2.1040456598         4.8906417361 
H       -1.2358166212        -2.6457225002         5.7876169960 
O       -2.9918082828        -1.9387325797         4.8906417361 
H       -1.1231973528        -1.1082776337         4.8906417361 
H       -3.4380909597        -2.8396267744         4.8906417361 
O       -4.1329296509        -2.7665294888         1.6302139120 
C       -5.5380816805        -2.6012164087         1.6302139120 
H       -3.6866469740        -1.8656352941         1.6302139120 
H       -6.0015405809        -3.5969844348         1.6302139120 
H       -5.8889213125        -2.0595395683         0.7332386521 
H       -5.8889213125        -2.0595395683         2.5271891719 
C       -1.5866562532         2.6012164087        -1.6302139120 
H       -1.2358166212         2.0595395683        -2.5271891719 
H       -1.2358166212         2.0595395683        -0.7332386521 
O       -2.9918082828         2.7665294888        -1.6302139120 
H       -1.1231973528         3.5969844348        -1.6302139120 
H       -3.4380909597         1.8656352941        -1.6302139120 
C       -1.5866562532         4.4566766940         1.6302139120 
H       -1.2358166212         4.9983535344         0.7332386521 
H       -1.2358166212         4.9983535344         2.5271891719 
O       -2.9918082828         4.2913636139         1.6302139120 
H       -1.1231973528         3.4609086680         1.6302139120 
H       -3.4380909597         5.1922578087         1.6302139120 
H       -1.2358166212         2.0595395683         3.9936664762 
C       -1.5866562532         2.6012164087         4.8906417361 
H       -1.2358166212         2.0595395683         5.7876169960 
O       -2.9918082828         2.7665294888         4.8906417361 
H       -1.1231973528         3.5969844348         4.8906417361 
H       -3.4380909597         1.8656352941         4.8906417361 
O       -4.1329296509         1.9387325797         1.6302139120 
C       -5.5380816805         2.1040456598         1.6302139120 
H       -3.6866469740         2.8396267744         1.6302139120 
H       -6.0015405809         1.1082776337         1.6302139120 
H       -5.8889213125         2.6457225002         0.7332386521 
H       -5.8889213125         2.6457225002         2.5271891719 
C        1.5866562532        -4.4566766940        -1.6302139120 
H        1.2358166212        -4.9983535344        -2.5271891719 
H        1.2358166212        -4.9983535344        -0.7332386521 
H        1.1231973528        -3.4609086680        -1.6302139120 
O        2.9918082828        -4.2913636139        -1.6302139120 
H        3.4380909597        -5.1922578087        -1.6302139120 
H        1.2358166212        -0.2930914659        -2.5271891719 
C        1.5866562532         0.2485853745        -1.6302139120 
H        1.2358166212        -0.2930914659        -0.7332386521 
H        1.1231973528         1.2443534005        -1.6302139120 
O        2.9918082828         0.4138984546        -1.6302139120 
H        3.4380909597        -0.4869957402        -1.6302139120 
H        1.2358166212        -2.0595395683        -3.9936664762 
C        1.5866562532        -2.6012164087        -4.8906417361 
H        1.1231973528        -3.5969844348        -4.8906417361 
O        2.9918082828        -2.7665294888        -4.8906417361 
H        1.2358166212        -2.0595395683        -5.7876169960 
H        3.4380909597        -1.8656352941        -4.8906417361 
O        4.1329296509        -1.9387325797        -1.6302139120 
H        3.6866469740        -2.8396267744        -1.6302139120 
C        5.5380816805        -2.1040456598        -1.6302139120 
H        5.8889213125        -2.6457225002        -2.5271891719 
H        5.8889213125        -2.6457225002        -0.7332386521 
H        6.0015405809        -1.1082776337        -1.6302139120 
C        1.5866562532        -2.6012164087         1.6302139120 
H        1.1231973528        -3.5969844348         1.6302139120 
O        2.9918082828        -2.7665294888         1.6302139120 
H        1.2358166212        -2.0595395683         0.7332386521 
H        1.2358166212        -2.0595395683         2.5271891719 
H        3.4380909597        -1.8656352941         1.6302139120 
H        1.2358166212         4.4121706026        -2.5271891719 
C        1.5866562532         4.9538474430        -1.6302139120 
H        1.2358166212         4.4121706026        -0.7332386521 
H        1.1231973528         5.9496154690        -1.6302139120 
O        2.9918082828         5.1191605231        -1.6302139120 
H        3.4380909597         4.2182663283        -1.6302139120 
H        1.2358166212         2.6457225002        -3.9936664762 
C        1.5866562532         2.1040456598        -4.8906417361 
H        1.1231973528         1.1082776337        -4.8906417361 
O        2.9918082828         1.9387325797        -4.8906417361 
H        1.2358166212         2.6457225002        -5.7876169960 
H        3.4380909597         2.8396267744        -4.8906417361 
O        4.1329296509         2.7665294888        -1.6302139120 
H        3.6866469740         1.8656352941        -1.6302139120 
C        5.5380816805         2.6012164087        -1.6302139120 
H        5.8889213125         2.0595395683        -2.5271891719 
H        5.8889213125         2.0595395683        -0.7332386521 
H        6.0015405809         3.5969844348        -1.6302139120 
