         114

C       -0.9966375512         1.9463082213         3.6138729283 
O       -1.2648303303         3.1906646486         4.2741392091 
H       -0.2122077306         1.4177312533         4.1716901190 
H       -1.8850377263         1.2998011443         3.5882010202 
H       -0.6430197394         2.1110920454         2.5844763569 
H       -2.1900245626         3.5008135980         4.0176988613 
C        3.4535187703         2.7650132452         0.4200344754 
H        4.2379485909         3.2935902132         0.9778516661 
H        2.5651185952         3.4115203222         0.3943625674 
H        3.8071365821         2.6002294211        -0.6093620960 
O        3.1853259912         1.5206568179         1.0803007562 
H        2.2601317589         1.2105078685         0.8238604085 
H        1.8425675703         2.5177508895         4.2496701792 
C        2.9365785695         2.6448607926         4.2701428887 
H        3.1859389466         3.6024434714         3.7853043490 
H        3.2563010301         2.6917868133         5.3191098234 
O        3.5983499451         1.5352016495         3.6510029132 
H        3.4029183179         1.5401133510         2.6573982592 
H       -1.0289601673         4.5492313103         1.0558317263 
C        0.0650508319         4.4221214071         1.0763044358 
O        0.7268222075         5.5317805502         0.4571644603 
H        0.3144112090         3.4645387284         0.5914658961 
H        0.3847732926         4.3751953865         2.1252713705 
H        0.5313905803         5.5268688487        -0.5364401937 
O        0.7268222075         0.8204590837         0.4571644603 
C        0.0650508319        -0.2892000594         1.0763044358 
H        0.5313905803         0.8155473822        -0.5364401937 
H        0.3144112090        -1.2467827381         0.5914658961 
H        0.3847732926        -0.3361260800         2.1252713705 
H       -1.0289601673        -0.1620901562         1.0558317263 
C        0.5819910327        -0.4093525119        -2.7738039775 
O        0.3137982536         0.8350039154        -2.1135376967 
H        1.3664208533        -0.9379294799        -2.2159867868 
H       -0.3064091424        -1.0558595890        -2.7994758855 
H        0.9356088445        -0.2445686878        -3.8032005488 
H       -0.6113959787         1.1451528647        -2.3699780444 
O        0.3137982536        -3.8763175511        -2.1135376967 
C        0.5819910327        -5.1206739784        -2.7738039775 
H       -0.6113959787        -3.5661686018        -2.3699780444 
H        1.3664208533        -5.6492509464        -2.2159867868 
H       -0.3064091424        -5.7671810555        -2.7994758855 
H        0.9356088445        -4.9558901543        -3.8032005488 
H       -3.9004879048        -2.1935705770        -2.1380067266 
C       -2.8064769057        -2.0664606739        -2.1175340170 
H       -2.5571165285        -1.1088779951        -2.6023725567 
H       -2.4867544450        -2.0195346532        -1.0685670824 
O       -2.1447055301        -3.1761198170        -2.7366739926 
H       -2.3401371573        -3.1712081155        -3.7302786466 
H        0.5313905803        -3.8957740843        -0.5364401937 
O        0.7268222075        -3.8908623828         0.4571644603 
C        0.0650508319        -5.0005215259         1.0763044358 
H        0.3144112090        -5.9581042046         0.5914658961 
H        0.3847732926        -5.0474475465         2.1252713705 
H       -1.0289601673        -4.8734116227         1.0558317263 
H       -3.0837354681        -3.7733919866         0.9778516661 
C       -3.8681652888        -4.3019689546         0.4200344754 
O       -4.1363580678        -5.5463253819         1.0803007562 
H       -4.7565654639        -3.6554618775         0.3943625674 
H       -3.5145474770        -4.4667527787        -0.6093620960 
H       -5.0615523002        -5.8564743312         0.8238604085 
O       -4.1363580678        -0.8350039154         1.0803007562 
C       -3.8681652888         0.4093525119         0.4200344754 
H       -5.0615523002        -1.1451528647         0.8238604085 
H       -3.0837354681         0.9379294799         0.9778516661 
H       -4.7565654639         1.0558595890         0.3943625674 
H       -3.5145474770         0.2445686878        -0.6093620960 
H       -3.9187657412        -0.8155473822         2.6573982592 
O       -3.7233341140        -0.8204590837         3.6510029132 
C       -4.3851054896         0.2892000594         4.2701428887 
H       -4.0653830289         0.3361260800         5.3191098234 
H       -5.4791164887         0.1620901562         4.2496701792 
H       -4.1357451125         1.2467827381         3.7853043490 
C        0.5819910327         4.3019689546        -2.7738039775 
O        0.3137982536         5.5463253819        -2.1135376967 
H        1.3664208533         3.7733919866        -2.2159867868 
H       -0.3064091424         3.6554618775        -2.7994758855 
H        0.9356088445         4.4667527787        -3.8032005488 
H       -0.6113959787         5.8564743312        -2.3699780444 
H       -3.9004879048         2.5177508895        -2.1380067266 
C       -2.8064769057         2.6448607926        -2.1175340170 
H       -2.5571165285         3.6024434714        -2.6023725567 
H       -2.4867544450         2.6917868133        -1.0685670824 
O       -2.1447055301         1.5352016495        -2.7366739926 
H       -2.3401371573         1.5401133510        -3.7302786466 
H        1.9634018765         2.0195346532        -4.2624055353 
C        1.6436794158         2.0664606739        -5.3113724699 
O        2.3054507914         3.1761198170        -5.9305124455 
H        0.5496684167         2.1935705770        -5.3318451795 
H        1.8930397929         1.1088779951        -5.7962110096 
H        2.1100191642         3.1712081155        -6.9241170995 
H        3.8071365821        -2.1110920454        -0.6093620960 
C        3.4535187703        -1.9463082213         0.4200344754 
H        4.2379485909        -1.4177312533         0.9778516661 
H        2.5651185952        -1.2998011443         0.3943625674 
O        3.1853259912        -3.1906646486         1.0803007562 
H        2.2601317589        -3.5008135980         0.8238604085 
C       -0.9966375512        -2.7650132452         3.6138729283 
O       -1.2648303303        -1.5206568179         4.2741392091 
H       -0.2122077306        -3.2935902132         4.1716901190 
H       -1.8850377263        -3.4115203222         3.5882010202 
H       -0.6430197394        -2.6002294211         2.5844763569 
H       -2.1900245626        -1.2105078685         4.0176988613 
H        1.8425675703        -2.1935705770         4.2496701792 
C        2.9365785695        -2.0664606739         4.2701428887 
H        3.1859389466        -1.1088779951         3.7853043490 
H        3.2563010301        -2.0195346532         5.3191098234 
O        3.5983499451        -3.1761198170         3.6510029132 
H        3.4029183179        -3.1712081155         2.6573982592 
H        3.4211961542         0.1620901562        -2.1380067266 
C        4.5152071534         0.2892000594        -2.1175340170 
O        5.1769785290        -0.8204590837        -2.7366739926 
H        4.8349296141         0.3361260800        -1.0685670824 
H        4.7645675305         1.2467827381        -2.6023725567 
H        4.9815469018        -0.8155473822        -3.7302786466 
