         132

O        3.6107576378         1.4269121079         2.3984632618 
H        3.9340842987         2.0491914927         3.1226963031 
C        4.1810350552         1.8828604889         1.1679856284 
H        3.9626141974         1.1347439076         0.3939708176 
H        3.7338270784         2.8403955455         0.8520863747 
H        5.2721060052         2.0048462742         1.2514929396 
H        1.3568479846         2.0048462742         1.2514929396 
C        0.2657770346         1.8828604889         1.1679856284 
H        0.0473561768         1.1347439076         0.3939708176 
H       -0.1814309422         2.8403955455         0.8520863747 
O       -0.3045003828         1.4269121079         2.3984632618 
H        0.0188262781         2.0491914927         3.1226963031 
O       -3.6107576378        -1.4269121079        -2.3984632618 
C       -4.1810350552        -1.8828604889        -1.1679856284 
H       -3.9340842987        -2.0491914927        -3.1226963031 
H       -3.7338270784        -2.8403955455        -0.8520863747 
H       -3.9626141974        -1.1347439076        -0.3939708176 
H       -5.2721060052        -2.0048462742        -1.2514929396 
H       -1.3568479846        -2.0048462742        -1.2514929396 
C       -0.2657770346        -1.8828604889        -1.1679856284 
H        0.1814309422        -2.8403955455        -0.8520863747 
H       -0.0473561768        -1.1347439076        -0.3939708176 
O        0.3045003828        -1.4269121079        -2.3984632618 
H       -0.0188262781        -2.0491914927        -3.1226963031 
C       -2.2472055262        -1.4174657997         2.2997658260 
H       -1.3853489809        -1.9594816394         2.7067586135 
H       -2.9545778710        -2.1508139877         1.8782079805 
O       -2.8549172582        -0.6817661946         3.3643694588 
H       -1.8912482833        -0.7480001630         1.5003701422 
H       -3.4357297387         0.0355013110         2.9711609778 
H        0.4795282819         0.0355013110         2.9711609778 
O        1.0603407624        -0.6817661946         3.3643694588 
C        1.6680524944        -1.4174657997         2.2997658260 
H        2.5299090397        -1.9594816394         2.7067586135 
H        0.9606801496        -2.1508139877         1.8782079805 
H        2.0240097373        -0.7480001630         1.5003701422 
H       -1.9616144115         0.1888421360         4.4523554242 
O       -1.6382877506         0.8111215207         5.1765884655 
C       -2.2085651680         0.3551731398         6.4070660989 
H       -1.7613571912        -0.6023619168         6.7229653526 
H       -1.9901443102         1.1032897211         7.1810809097 
H       -3.2996361180         0.2331873544         6.3235587877 
C       -1.0337164165        -4.9038022946         1.1679856284 
H       -1.2521372742        -5.6519188759         0.3939708176 
H       -1.4809243933        -3.9462672380         0.8520863747 
O       -1.6039938338        -5.3597506756         2.3984632618 
H        0.0573545336        -4.7818165093         1.2514929396 
H       -1.2806671729        -4.7374712908         3.1226963031 
C       -1.6680524944         1.4174657997        -2.2997658260 
H       -2.0240097373         0.7480001630        -1.5003701422 
O       -1.0603407624         0.6817661946        -3.3643694588 
H       -0.9606801496         2.1508139877        -1.8782079805 
H       -2.5299090397         1.9594816394        -2.7067586135 
H       -0.4795282819        -0.0355013110        -2.9711609778 
H       -1.9536436091        -0.1888421360        -4.4523554242 
O       -2.2769702700        -0.8111215207        -5.1765884655 
C       -1.7066928526        -0.3551731398        -6.4070660989 
H       -1.9251137104        -1.1032897211        -7.1810809097 
H       -2.1539008294         0.6023619168        -6.7229653526 
H       -0.6156219026        -0.2331873544        -6.3235587877 
H       -2.4343336273         3.9462672380        -0.8520863747 
C       -2.8815416041         4.9038022946        -1.1679856284 
H       -2.6631207464         5.6519188759        -0.3939708176 
H       -3.9726125542         4.7818165093        -1.2514929396 
O       -2.3112641868         5.3597506756        -2.3984632618 
H       -2.6345908477         4.7374712908        -3.1226963031 
H       -0.0573545336         4.7818165093        -1.2514929396 
C        1.0337164165         4.9038022946        -1.1679856284 
H        1.4809243933         3.9462672380        -0.8520863747 
H        1.2521372742         5.6519188759        -0.3939708176 
O        1.6039938338         5.3597506756        -2.3984632618 
H        1.2806671729         4.7374712908        -3.1226963031 
H       -1.6550844199         4.6358487958         1.8782079805 
C       -0.9477120751         5.3691969838         2.2997658260 
H       -0.0858555298         4.8271811441         2.7067586135 
O       -1.5554238071         6.1048965889         3.3643694588 
H       -0.5917548323         6.0386626206         1.5003701422 
H       -2.1362362877         6.8221640945         2.9711609778 
O        0.9121291248         2.9197998233         4.2106822685 
H        1.4929416053         2.2025323177         4.6038907495 
C        0.3044173928         3.6554994284         5.2752859013 
H       -0.0515398501         2.9860337916         6.0746815851 
H        1.0117897376         4.3888476163         5.6968437468 
H       -0.5574391525         4.1975152680         4.8682931138 
H       -2.5584100360         2.0048462742         1.2514929396 
C       -3.6494809860         1.8828604889         1.1679856284 
H       -3.8679018438         1.1347439076         0.3939708176 
H       -4.0966889628         2.8403955455         0.8520863747 
O       -4.2197584034         1.4269121079         2.3984632618 
H       -3.8964317425         2.0491914927         3.1226963031 
H        1.6550844199        -4.6358487958        -1.8782079805 
C        0.9477120751        -5.3691969838        -2.2997658260 
H        0.5917548323        -6.0386626206        -1.5003701422 
O        1.5554238071        -6.1048965889        -3.3643694588 
H        0.0858555298        -4.8271811441        -2.7067586135 
H        2.1362362877        -6.8221640945        -2.9711609778 
O       -0.9121291248        -2.9197998233        -4.2106822685 
C       -0.3044173928        -3.6554994284        -5.2752859013 
H       -1.4929416053        -2.2025323177        -4.6038907495 
H        0.5574391525        -4.1975152680        -4.8682931138 
H       -1.0117897376        -4.3888476163        -5.6968437468 
H        0.0515398501        -2.9860337916        -6.0746815851 
H        2.5584100360        -2.0048462742        -1.2514929396 
C        3.6494809860        -1.8828604889        -1.1679856284 
H        4.0966889628        -2.8403955455        -0.8520863747 
H        3.8679018438        -1.1347439076        -0.3939708176 
O        4.2197584034        -1.4269121079        -2.3984632618 
H        3.8964317425        -2.0491914927        -3.1226963031 
H        1.9536436091         0.1888421360         4.4523554242 
O        2.2769702700         0.8111215207         5.1765884655 
C        1.7066928526         0.3551731398         6.4070660989 
H        2.1539008294        -0.6023619168         6.7229653526 
H        1.9251137104         1.1032897211         7.1810809097 
H        0.6156219026         0.2331873544         6.3235587877 
H        2.4343336273        -3.9462672380         0.8520863747 
C        2.8815416041        -4.9038022946         1.1679856284 
H        2.6631207464        -5.6519188759         0.3939708176 
O        2.3112641868        -5.3597506756         2.3984632618 
H        3.9726125542        -4.7818165093         1.2514929396 
H        2.6345908477        -4.7374712908         3.1226963031 
C        2.2472055262         1.4174657997        -2.2997658260 
H        1.8912482833         0.7480001630        -1.5003701422 
O        2.8549172582         0.6817661946        -3.3643694588 
H        2.9545778710         2.1508139877        -1.8782079805 
H        1.3853489809         1.9594816394        -2.7067586135 
H        3.4357297387        -0.0355013110        -2.9711609778 
H        1.9616144115        -0.1888421360        -4.4523554242 
O        1.6382877506        -0.8111215207        -5.1765884655 
C        2.2085651680        -0.3551731398        -6.4070660989 
H        1.9901443102        -1.1032897211        -7.1810809097 
H        1.7613571912         0.6023619168        -6.7229653526 
H        3.2996361180        -0.2331873544        -6.3235587877 
