         132

C        1.2312858215         4.2313684458         2.3818294377 
O        2.2240640441         4.2377948085         3.4375136266 
H        0.5810777385         5.1019251615         2.5275420673 
H        0.6208623237         3.3180555484         2.4319529253 
H        1.6967972247         4.2981560617         1.3889750629 
H        2.7580304694         3.3870700980         3.3611684964 
H        0.5810777385         0.5287377916         2.5275420673 
C        1.2312858215        -0.3418189241         2.3818294377 
O        2.2240640441        -0.3353925614         3.4375136266 
H        0.6208623237        -1.2551318215         2.4319529253 
H        1.6967972247        -0.2750313082         1.3889750629 
H        2.7580304694        -1.1861172719         3.3611684964 
O        3.5998628248         1.9512011236         3.3136649859 
C        4.5926410474         1.9447747609         4.3693491748 
H        3.0658963995         1.1004764131         3.3900101161 
H        5.2428491305         2.8153314766         4.2236365452 
H        4.1271296442         2.0115623767         5.3622035496 
H        5.2030645452         1.0314618635         4.3192256872 
H        4.5253393348         1.6752671578         1.7524380167 
O        5.1291923324         1.4288192840         1.0127345036 
C        4.8774458311         0.0571544898         0.6884478170 
H        5.7016746656        -0.2963804510         0.0567398290 
H        4.8435123684        -0.5756076253         1.5890669793 
H        3.9266306943        -0.0711654691         0.1403849060 
C       -1.2312858215        -2.6284126090        -2.3818294377 
H       -0.5810777385        -1.7578558933        -2.5275420673 
H       -1.6967972247        -2.5616249932        -1.3889750629 
H       -0.6208623237        -3.5417255064        -2.4319529253 
O       -2.2240640441        -2.6219862463        -3.4375136266 
H       -2.7580304694        -3.4727109568        -3.3611684964 
O       -3.5998628248        -0.3353925614        -3.3136649859 
H       -3.0658963995        -1.1861172719        -3.3900101161 
C       -4.5926410474        -0.3418189241        -4.3693491748 
H       -5.2428491305         0.5287377916        -4.2236365452 
H       -5.2030645452        -1.2551318215        -4.3192256872 
H       -4.1271296442        -0.2750313082        -5.3622035496 
H       -4.5253393348        -0.6113265272        -1.7524380167 
O       -5.1291923324        -0.8577744009        -1.0127345036 
C       -4.8774458311        -2.2294391952        -0.6884478170 
H       -3.9266306943        -2.3577591541        -0.1403849060 
H       -5.7016746656        -2.5829741360        -0.0567398290 
H       -4.8435123684        -2.8622013102        -1.5890669793 
H       -0.9804145005        -0.5756076253        -5.1621116332 
C       -0.9464810378         0.0571544898        -6.0627307955 
H       -0.1222522034        -0.2963804510        -6.6944387835 
H       -1.8972961746        -0.0711654691        -6.6107937065 
O       -0.6947345365         1.4288192840        -5.7384441088 
H       -1.2985875341         1.6752671578        -4.9987405958 
H       -4.8957590558        -0.2750313082         1.3889750629 
C       -5.3612704590        -0.3418189241         2.3818294377 
O       -4.3684922364        -0.3353925614         3.4375136266 
H       -6.0114785420         0.5287377916         2.5275420673 
H       -5.9716939568        -1.2551318215         2.4319529253 
H       -3.8345258111        -1.1861172719         3.3611684964 
H       -1.3497071500        -1.7578558933         4.2236365452 
C       -1.9999152331        -2.6284126090         4.3693491748 
H       -2.4654266363        -2.5616249932         5.3622035496 
H       -1.3894917353        -3.5417255064         4.3192256872 
O       -2.9926934557        -2.6219862463         3.3136649859 
H       -3.5266598810        -3.4727109568         3.3900101161 
H       -2.0672169457        -2.8979202121         1.7524380167 
O       -1.4633639481        -3.1443680859         1.0127345036 
C       -1.7151104494        -4.5160328801         0.6884478170 
H       -0.8908816149        -4.8695678209         0.0567398290 
H       -1.7490439121        -5.1487949952         1.5890669793 
H       -2.6659255862        -4.6443528390         0.1403849060 
H       -2.6659255862        -0.0711654691         0.1403849060 
C       -1.7151104494         0.0571544898         0.6884478170 
H       -0.8908816149        -0.2963804510         0.0567398290 
H       -1.7490439121        -0.5756076253         1.5890669793 
O       -1.4633639481         1.4288192840         1.0127345036 
H       -2.0672169457         1.6752671578         1.7524380167 
C       -1.2312858215         1.9447747609        -2.3818294377 
H       -0.5810777385         2.8153314766        -2.5275420673 
H       -1.6967972247         2.0115623767        -1.3889750629 
H       -0.6208623237         1.0314618635        -2.4319529253 
O       -2.2240640441         1.9512011236        -3.4375136266 
H       -2.7580304694         1.1004764131        -3.3611684964 
H       -3.9266306943         2.2154282158        -0.1403849060 
C       -4.8774458311         2.3437481747        -0.6884478170 
O       -5.1291923324         3.7154129690        -1.0127345036 
H       -5.7016746656         1.9902132339        -0.0567398290 
H       -4.8435123684         1.7109860597        -1.5890669793 
H       -4.5253393348         3.9618608427        -1.7524380167 
C       -1.9999152331         1.9447747609         4.3693491748 
H       -1.3497071500         2.8153314766         4.2236365452 
H       -2.4654266363         2.0115623767         5.3622035496 
H       -1.3894917353         1.0314618635         4.3192256872 
O       -2.9926934557         1.9512011236         3.3136649859 
H       -3.5266598810         1.1004764131         3.3900101161 
H       -2.6659255862         4.5020219008         0.1403849060 
C       -1.7151104494         4.6303418597         0.6884478170 
H       -0.8908816149         4.2768069189         0.0567398290 
H       -1.7490439121         3.9975797446         1.5890669793 
O       -1.4633639481         6.0020066539         1.0127345036 
H       -2.0672169457         6.2484545277         1.7524380167 
C        1.9999152331        -0.3418189241        -4.3693491748 
O        2.9926934557        -0.3353925614        -3.3136649859 
H        1.3497071500         0.5287377916        -4.2236365452 
H        1.3894917353        -1.2551318215        -4.3192256872 
H        2.4654266363        -0.2750313082        -5.3622035496 
H        3.5266598810        -1.1861172719        -3.3900101161 
H        2.0672169457        -0.6113265272        -1.7524380167 
O        1.4633639481        -0.8577744009        -1.0127345036 
C        1.7151104494        -2.2294391952        -0.6884478170 
H        2.6659255862        -2.3577591541        -0.1403849060 
H        0.8908816149        -2.5829741360        -0.0567398290 
H        1.7490439121        -2.8622013102        -1.5890669793 
H        0.5810777385        -4.0444495783         2.5275420673 
C        1.2312858215        -4.9150062940         2.3818294377 
O        2.2240640441        -4.9085799313         3.4375136266 
H        0.6208623237        -5.8283191914         2.4319529253 
H        1.6967972247        -4.8482186781         1.3889750629 
H        2.7580304694        -5.7593046418         3.3611684964 
H        1.2985875341        -0.6113265272         4.9987405958 
O        0.6947345365        -0.8577744009         5.7384441088 
C        0.9464810378        -2.2294391952         6.0627307955 
H        1.8972961746        -2.3577591541         6.6107937065 
H        0.1222522034        -2.5829741360         6.6944387835 
H        0.9804145005        -2.8622013102         5.1621116332 
H        3.8345258111         1.1004764131        -3.3611684964 
O        4.3684922364         1.9512011236        -3.4375136266 
C        5.3612704590         1.9447747609        -2.3818294377 
H        6.0114785420         2.8153314766        -2.5275420673 
H        4.8957590558         2.0115623767        -1.3889750629 
H        5.9716939568         1.0314618635        -2.4319529253 
H        2.0672169457         3.9618608427        -1.7524380167 
O        1.4633639481         3.7154129690        -1.0127345036 
C        1.7151104494         2.3437481747        -0.6884478170 
H        2.6659255862         2.2154282158        -0.1403849060 
H        0.8908816149         1.9902132339        -0.0567398290 
H        1.7490439121         1.7109860597        -1.5890669793 
