         114

C        4.9652028385         0.3027659914         0.9911192787 
H        5.6610585852        -0.5297586846         0.8145222653 
H        4.5120599247         0.1899098210         1.9855219091 
H        5.5242507040         1.2458920339         0.9635234692 
O        3.9587498386         0.3619608443        -0.0487488921 
H        3.4518028367        -0.5075886112        -0.0350787526 
O        2.6032103674         2.6571344567         0.0487488921 
C        1.5967573675         2.5979396037        -0.9911192787 
H        3.1101573693         1.7875850012         0.0350787526 
H        2.0499002813         2.4850834334        -1.9855219091 
H        1.0377095020         3.5410656463        -0.9635234692 
H        0.9009016208         1.7654149277        -0.8145222653 
H        1.7186553788         2.9252729949         1.6198965472 
O        1.1215286700         3.1549112686         2.3703094933 
C        1.3488606818         4.5285976053         2.7029942184 
H        2.3024337623         4.6716622884         3.2425353721 
H        0.5236516335         4.8603644295         3.3454925398 
H        1.3606810490         5.1701349616         1.8080197628 
H        0.5236516335         0.2700172048         3.3454925398 
C        1.3488606818        -0.0617496194         2.7029942184 
H        2.3024337623         0.0813150637         3.2425353721 
H        1.3606810490         0.5797877369         1.8080197628 
O        1.1215286700        -1.4354359561         2.3703094933 
H        1.7186553788        -1.6650742298         1.6198965472 
O       -2.6032103674        -4.2283863804        -0.0487488921 
H       -3.1101573693        -5.0979358359        -0.0350787526 
C       -1.5967573675        -4.2875812333         0.9911192787 
H       -0.9009016208        -5.1201059093         0.8145222653 
H       -2.0499002813        -4.4004374037         1.9855219091 
H       -1.0377095020        -3.3444551908         0.9635234692 
H       -3.1101573693        -0.5075886112        -0.0350787526 
O       -2.6032103674         0.3619608443        -0.0487488921 
C       -1.5967573675         0.3027659914         0.9911192787 
H       -0.9009016208        -0.5297586846         0.8145222653 
H       -2.0499002813         0.1899098210         1.9855219091 
H       -1.0377095020         1.2458920339         0.9635234692 
H       -1.7186553788        -3.9602478422        -1.6198965472 
O       -1.1215286700        -3.7306095685        -2.3703094933 
C       -1.3488606818        -2.3569232318        -2.7029942184 
H       -1.3606810490        -1.7153858754        -1.8080197628 
H       -0.5236516335        -2.0251564076        -3.3454925398 
H       -2.3024337623        -2.2138585486        -3.2425353721 
O       -3.9587498386        -1.9332127680         0.0487488921 
C       -4.9652028385        -1.9924076210        -0.9911192787 
H       -3.4518028367        -2.8027622235         0.0350787526 
H       -4.5120599247        -2.1052637913        -1.9855219091 
H       -5.5242507040        -1.0492815784        -0.9635234692 
H       -5.6610585852        -2.8249322970        -0.8145222653 
C       -2.0338535118        -2.3569232318         4.0404104109 
H       -2.0456738790        -1.7153858754         4.9353848664 
H       -1.2086444635        -2.0251564076         3.3979120895 
H       -2.9874265923        -2.2138585486         3.5008692571 
O       -1.8065214999        -3.7306095685         4.3730951359 
H       -2.4036482088        -3.9602478422         5.1235080820 
H       -1.3649074513         0.1899098210        -4.7578827202 
C       -0.9117645376         0.3027659914        -5.7522853505 
H       -0.2159087908        -0.5297586846        -5.9288823640 
H       -0.3527166720         1.2458920339        -5.7798811600 
O       -1.9182175374         0.3619608443        -6.7921535213 
H       -2.4251645394        -0.5075886112        -6.7784833818 
H       -3.1101573693         4.0827586135        -0.0350787526 
O       -2.6032103674         4.9523080690        -0.0487488921 
C       -1.5967573675         4.8931132161         0.9911192787 
H       -0.9009016208         4.0605885401         0.8145222653 
H       -2.0499002813         4.7802570457         1.9855219091 
H       -1.0377095020         5.8362392586         0.9635234692 
H       -1.7186553788         0.6300993825        -1.6198965472 
O       -1.1215286700         0.8597376562        -2.3703094933 
C       -1.3488606818         2.2334239929        -2.7029942184 
H       -1.3606810490         2.8749613493        -1.8080197628 
H       -0.5236516335         2.5651908171        -3.3454925398 
H       -2.3024337623         2.3764886761        -3.2425353721 
H       -3.5745336137         0.0813150637        -3.5008692571 
C       -4.5281066942        -0.0617496194        -4.0404104109 
H       -5.3533157425         0.2700172048        -3.3979120895 
H       -4.5162863270         0.5797877369        -4.9353848664 
O       -4.7554387061        -1.4354359561        -4.3730951359 
H       -4.1583119972        -1.6650742298        -5.1235080820 
O       -3.9587498386         2.6571344567         0.0487488921 
C       -4.9652028385         2.5979396037        -0.9911192787 
H       -3.4518028367         1.7875850012         0.0350787526 
H       -4.5120599247         2.4850834334        -1.9855219091 
H       -5.5242507040         3.5410656463        -0.9635234692 
H       -5.6610585852         1.7654149277        -0.8145222653 
O       -1.8065214999         0.8597376562         4.3730951359 
H       -2.4036482088         0.6300993825         5.1235080820 
C       -2.0338535118         2.2334239929         4.0404104109 
H       -2.0456738790         2.8749613493         4.9353848664 
H       -1.2086444635         2.5651908171         3.3979120895 
H       -2.9874265923         2.3764886761         3.5008692571 
C        1.5967573675        -1.9924076210        -0.9911192787 
O        2.6032103674        -1.9332127680         0.0487488921 
H        2.0499002813        -2.1052637913        -1.9855219091 
H        1.0377095020        -1.0492815784        -0.9635234692 
H        0.9009016208        -2.8249322970        -0.8145222653 
H        3.1101573693        -2.8027622235         0.0350787526 
O        1.8065214999        -1.4354359561        -4.3730951359 
C        2.0338535118        -0.0617496194        -4.0404104109 
H        2.4036482088        -1.6650742298        -5.1235080820 
H        2.9874265923         0.0813150637        -3.5008692571 
H        1.2086444635         0.2700172048        -3.3979120895 
H        2.0456738790         0.5797877369        -4.9353848664 
H        1.3606810490        -4.0105594878         1.8080197628 
C        1.3488606818        -4.6520968441         2.7029942184 
H        2.3024337623        -4.5090321610         3.2425353721 
H        0.5236516335        -4.3203300199         3.3454925398 
O        1.1215286700        -6.0257831808         2.3703094933 
H        1.7186553788        -6.2554214545         1.6198965472 
H        4.8433048272         0.6300993825        -1.6198965472 
O        5.4404315360         0.8597376562        -2.3703094933 
C        5.2130995242         2.2334239929        -2.7029942184 
H        5.2012791570         2.8749613493        -1.8080197628 
H        6.0383085725         2.5651908171        -3.3454925398 
H        4.2595264437         2.3764886761        -3.2425353721 
