         120

C        1.6300223251         2.4372061719         1.9201541071 
H        2.1966312358         2.5121467023         2.8583052882 
H        2.3418404299         2.2496061263         1.0985558410 
H        1.1362155706         3.4079979129         1.7357846127 
O        0.6954900711         1.3716504069         2.0525625671 
H        0.1670191233         1.3058686052         1.1962228348 
H        4.6950031549         1.5977952521         0.6162413909 
C        5.2616120656         1.6727357825        -0.3219097902 
O        6.1961443196         2.7382915475        -0.1895013302 
H        5.7554188201         0.7019440415        -0.5062792846 
H        4.5497939608         1.8603358281        -1.1435080563 
H        6.7246152674         2.8040733492        -1.0458410624 
C       -1.6300223251        -2.4372061719        -2.5639736874 
H       -2.1966312358        -2.5121467023        -1.6258225063 
O       -0.6954900711        -1.3716504069        -2.4315652274 
H       -1.1362155706        -3.4079979129        -2.7483431818 
H       -2.3418404299        -2.2496061263        -3.3855719535 
H       -0.1670191233        -1.3058686052        -3.2879049597 
H       -1.1362155706        -4.8118859959        -0.5062792846 
C       -1.6300223251        -5.7826777369        -0.3219097902 
H       -2.1966312358        -5.7077372065         0.6162413909 
H       -2.3418404299        -5.9702777825        -1.1435080563 
O       -0.6954900711        -6.8482335019        -0.1895013302 
H       -0.1670191233        -6.9140153036        -1.0458410624 
H       -4.5497939608        -1.8603358281        -1.1435080563 
C       -5.2616120656        -1.6727357825        -0.3219097902 
H       -4.6950031549        -1.5977952521         0.6162413909 
H       -5.7554188201        -0.7019440415        -0.5062792846 
O       -6.1961443196        -2.7382915475        -0.1895013302 
H       -6.7246152674        -2.8040733492        -1.0458410624 
C       -1.6300223251        -2.4372061719         1.9201541071 
H       -2.1966312358        -2.5121467023         2.8583052882 
O       -0.6954900711        -1.3716504069         2.0525625671 
H       -1.1362155706        -3.4079979129         1.7357846127 
H       -2.3418404299        -2.2496061263         1.0985558410 
H       -0.1670191233        -1.3058686052         1.1962228348 
C       -1.6300223251         2.4372061719        -0.3219097902 
H       -2.1966312358         2.5121467023         0.6162413909 
H       -1.1362155706         3.4079979129        -0.5062792846 
H       -2.3418404299         2.2496061263        -1.1435080563 
O       -0.6954900711         1.3716504069        -0.1895013302 
H       -0.1670191233         1.3058686052        -1.0458410624 
H       -2.1966312358         2.5121467023        -3.8678864036 
C       -1.6300223251         2.4372061719        -4.8060375847 
H       -1.1362155706         3.4079979129        -4.9904070791 
H       -2.3418404299         2.2496061263        -5.6276358508 
O       -0.6954900711         1.3716504069        -4.6736291247 
H       -0.1670191233         1.3058686052        -5.5299688569 
H       -4.6950031549         1.5977952521        -1.6258225063 
C       -5.2616120656         1.6727357825        -2.5639736874 
O       -6.1961443196         2.7382915475        -2.4315652274 
H       -4.5497939608         1.8603358281        -3.3855719535 
H       -5.7554188201         0.7019440415        -2.7483431818 
H       -6.7246152674         2.8040733492        -3.2879049597 
C       -1.6300223251         2.4372061719         4.1622180043 
H       -2.1966312358         2.5121467023         5.1003691854 
H       -1.1362155706         3.4079979129         3.9778485099 
H       -2.3418404299         2.2496061263         3.3406197382 
O       -0.6954900711         1.3716504069         4.2946264643 
H       -0.1670191233         1.3058686052         3.4382867321 
H       -1.1362155706         4.8118859959         1.7357846127 
C       -1.6300223251         5.7826777369         1.9201541071 
H       -2.1966312358         5.7077372065         2.8583052882 
O       -0.6954900711         6.8482335019         2.0525625671 
H       -2.3418404299         5.9702777825         1.0985558410 
H       -0.1670191233         6.9140153036         1.1962228348 
H       -4.5497939608         1.8603358281         1.0985558410 
C       -5.2616120656         1.6727357825         1.9201541071 
H       -4.6950031549         1.5977952521         2.8583052882 
O       -6.1961443196         2.7382915475         2.0525625671 
H       -5.7554188201         0.7019440415         1.7357846127 
H       -6.7246152674         2.8040733492         1.1962228348 
C        1.6300223251        -2.4372061719        -0.3219097902 
O        0.6954900711        -1.3716504069        -0.1895013302 
H        2.3418404299        -2.2496061263        -1.1435080563 
H        2.1966312358        -2.5121467023         0.6162413909 
H        1.1362155706        -3.4079979129        -0.5062792846 
H        0.1670191233        -1.3058686052        -1.0458410624 
H        4.6950031549        -1.5977952521        -1.6258225063 
C        5.2616120656        -1.6727357825        -2.5639736874 
H        5.7554188201        -0.7019440415        -2.7483431818 
H        4.5497939608        -1.8603358281        -3.3855719535 
O        6.1961443196        -2.7382915475        -2.4315652274 
H        6.7246152674        -2.8040733492        -3.2879049597 
H        2.1966312358        -2.5121467023        -3.8678864036 
C        1.6300223251        -2.4372061719        -4.8060375847 
O        0.6954900711        -1.3716504069        -4.6736291247 
H        2.3418404299        -2.2496061263        -5.6276358508 
H        1.1362155706        -3.4079979129        -4.9904070791 
H        0.1670191233        -1.3058686052        -5.5299688569 
C        1.6300223251        -2.4372061719         4.1622180043 
O        0.6954900711        -1.3716504069         4.2946264643 
H        2.3418404299        -2.2496061263         3.3406197382 
H        2.1966312358        -2.5121467023         5.1003691854 
H        1.1362155706        -3.4079979129         3.9778485099 
H        0.1670191233        -1.3058686052         3.4382867321 
H        1.1362155706        -4.8118859959         1.7357846127 
C        1.6300223251        -5.7826777369         1.9201541071 
H        2.1966312358        -5.7077372065         2.8583052882 
H        2.3418404299        -5.9702777825         1.0985558410 
O        0.6954900711        -6.8482335019         2.0525625671 
H        0.1670191233        -6.9140153036         1.1962228348 
H        4.5497939608        -1.8603358281         1.0985558410 
C        5.2616120656        -1.6727357825         1.9201541071 
H        4.6950031549        -1.5977952521         2.8583052882 
H        5.7554188201        -0.7019440415         1.7357846127 
O        6.1961443196        -2.7382915475         2.0525625671 
H        6.7246152674        -2.8040733492         1.1962228348 
C        1.6300223251         2.4372061719        -2.5639736874 
H        2.1966312358         2.5121467023        -1.6258225063 
H        2.3418404299         2.2496061263        -3.3855719535 
H        1.1362155706         3.4079979129        -2.7483431818 
O        0.6954900711         1.3716504069        -2.4315652274 
H        0.1670191233         1.3058686052        -3.2879049597 
H        1.1362155706         4.8118859959        -0.5062792846 
C        1.6300223251         5.7826777369        -0.3219097902 
O        0.6954900711         6.8482335019        -0.1895013302 
H        2.3418404299         5.9702777825        -1.1435080563 
H        2.1966312358         5.7077372065         0.6162413909 
H        0.1670191233         6.9140153036        -1.0458410624 
