         126

H        2.1634865871         3.6465008149         2.8156032536 
C        1.6640579907         4.6285299164         2.8270868951 
O        2.5219320860         5.6211976255         3.4091842113 
H        0.7463128739         4.5517977241         3.4266641087 
H        1.3855964819         4.8999065186         1.7983904833 
H        2.9547945272         6.1549520742         2.6656052697 
H        4.5115036723         0.1828515668         0.5987937144 
O        4.9387416368         0.7100608167         1.3498939973 
C        4.0124302303         1.7086318451         1.8030094766 
H        2.9809229748         1.4464246200         1.5262061471 
H        4.0719607391         1.7796810117         2.8982782563 
H        4.2618219628         2.6891341740         1.3669541156 
H       -0.9084338291        -0.1828515668        -1.2895819517 
O       -0.4811958647        -0.7100608167        -0.5384816688 
C       -1.4075072712        -1.7086318451        -0.0853661895 
H       -1.3479767623        -1.7796810117         1.0099025902 
H       -1.1581155386        -2.6891341740        -0.5214215505 
H       -2.4390145266        -1.4464246200        -0.3621695190 
H       -3.5333763364        -1.7796810117        -2.7668487420 
C       -3.5929068452        -1.7086318451        -3.8621175217 
O       -2.6665954387        -0.7100608167        -4.3152330010 
H       -3.3435151127        -2.6891341740        -4.2981728827 
H       -4.6244141007        -1.4464246200        -4.1389208512 
H       -3.0938334032        -0.1828515668        -5.0663332839 
H       -0.3463869131        -4.5517977241         1.5382884426 
C        0.5713582037        -4.6285299164         0.9387112290 
O        1.4292322990        -5.6211976255         1.5208085452 
H        0.2928966948        -4.8999065186        -0.0899851828 
H        1.0707868000        -3.6465008149         0.9272275875 
H        1.8620947402        -6.1549520742         0.7772296036 
H       -3.2564509144        -3.6465008149         0.9272275875 
C       -3.7558795107        -4.6285299164         0.9387112290 
O       -2.8980054154        -5.6211976255         1.5208085452 
H       -4.0343410196        -4.8999065186        -0.0899851828 
H       -4.6736246275        -4.5517977241         1.5382884426 
H       -2.4651429742        -6.1549520742         0.7772296036 
H        1.2769657449        -0.1828515668         2.4871693805 
O        1.7042037094        -0.7100608167         3.2382696634 
C        0.7778923029        -1.7086318451         3.6913851427 
H        0.8374228117        -1.7796810117         4.7866539223 
H        1.0272840354        -2.6891341740         3.2553297817 
H       -0.2536149526        -1.4464246200         3.4145818132 
H       -1.4390867002         4.5517977241        -0.3500872235 
C       -0.5213415834         4.6285299164        -0.9496644371 
O        0.3365325119         5.6211976255        -0.3675671209 
H       -0.0219129870         3.6465008149        -0.9611480785 
H       -0.7998030922         4.8999065186        -1.9783608489 
H        0.7693949531         6.1549520742        -1.1111460624 
H       -2.0011336162         0.1828515668        -3.1779576178 
O       -1.5738956517         0.7100608167        -2.4268573349 
C       -2.5002070582         1.7086318451        -1.9737418556 
H       -3.5317143137         1.4464246200        -2.2505451851 
H       -2.4406765494         1.7796810117        -0.8784730759 
H       -2.2508153257         2.6891341740        -2.4097972166 
H       -2.1637511273         3.6465008149         2.8156032536 
C       -2.6631797237         4.6285299164         2.8270868951 
O       -1.8053056284         5.6211976255         3.4091842113 
H       -3.5809248405         4.5517977241         3.4266641087 
H       -2.9416412325         4.8999065186         1.7983904833 
H       -1.3724431872         6.1549520742         2.6656052697 
H        0.1842659579         0.1828515668         0.5987937144 
O        0.6115039224         0.7100608167         1.3498939973 
C       -0.3148074841         1.7086318451         1.8030094766 
H       -1.3463147396         1.4464246200         1.5262061471 
H       -0.2552769753         1.7796810117         2.8982782563 
H       -0.0654157516         2.6891341740         1.3669541156 
H        2.3696655320         0.1828515668         4.3755450466 
O        2.7969034964         0.7100608167         5.1266453295 
C        1.8705920899         1.7086318451         5.5797608088 
H        0.8390848344         1.4464246200         5.3029574793 
H        1.9301225988         1.7796810117         6.6750295884 
H        2.1199838225         2.6891341740         5.1437054478 
H       -1.1146127740        -3.6465008149        -2.8495237446 
C       -1.6140413704        -4.6285299164        -2.8380401032 
O       -0.7561672751        -5.6211976255        -2.2559427870 
H       -1.8925028792        -4.8999065186        -3.8667365150 
H       -2.5317864872        -4.5517977241        -2.2384628896 
H       -0.3233048339        -6.1549520742        -2.9995217285 
H        3.4188038853        -0.1828515668        -1.2895819517 
O        3.8460418497        -0.7100608167        -0.5384816688 
C        2.9197304432        -1.7086318451        -0.0853661895 
H        2.9792609521        -1.7796810117         1.0099025902 
H        3.1691221758        -2.6891341740        -0.5214215505 
H        1.8882231878        -1.4464246200        -0.3621695190 
H        0.7938613780        -1.7796810117        -2.7668487420 
C        0.7343308692        -1.7086318451        -3.8621175217 
O        1.6606422757        -0.7100608167        -4.3152330010 
H        0.9837226017        -2.6891341740        -4.2981728827 
H       -0.2971763863        -1.4464246200        -4.1389208512 
H        1.2334043112        -0.1828515668        -5.0663332839 
H        2.3261040982         0.1828515668        -3.1779576178 
O        2.7533420627         0.7100608167        -2.4268573349 
C        1.8270306562         1.7086318451        -1.9737418556 
H        0.7955234007         1.4464246200        -2.2505451851 
H        1.8865611650         1.7796810117        -0.8784730759 
H        2.0764223887         2.6891341740        -2.4097972166 
O       -4.8084335791        -0.7100608167        -0.5384816688 
C       -5.7347449856        -1.7086318451        -0.0853661895 
H       -5.2356715435        -0.1828515668        -1.2895819517 
H       -5.6752144767        -1.7796810117         1.0099025902 
H       -5.4853532530        -2.6891341740        -0.5214215505 
H       -6.7662522410        -1.4464246200        -0.3621695190 
H       -3.0502719695        -0.1828515668         2.4871693805 
O       -2.6230340050        -0.7100608167         3.2382696634 
C       -3.5493454115        -1.7086318451         3.6913851427 
H       -3.4898149027        -1.7796810117         4.7866539223 
H       -3.2999536790        -2.6891341740         3.2553297817 
H       -4.5808526670        -1.4464246200         3.4145818132 
H       -4.1429717565         0.1828515668         0.5987937144 
O       -3.7157337920         0.7100608167         1.3498939973 
C       -4.6420451985         1.7086318451         1.8030094766 
H       -5.6735524540         1.4464246200         1.5262061471 
H       -4.5825146897         1.7796810117         2.8982782563 
H       -4.3926534660         2.6891341740         1.3669541156 
H       -1.9575721824         0.1828515668         4.3755450466 
O       -1.5303342180         0.7100608167         5.1266453295 
C       -2.4566456245         1.7086318451         5.5797608088 
H       -3.4881528800         1.4464246200         5.3029574793 
H       -2.3971151156         1.7796810117         6.6750295884 
H       -2.2072538919         2.6891341740         5.1437054478 
H       -0.2988384090         1.7796810117        -4.6552244081 
C       -0.3583689179         1.7086318451        -5.7504931877 
H       -1.3898761733         1.4464246200        -6.0272965173 
H       -0.1089771853         2.6891341740        -6.1865485488 
O        0.5679424887         0.7100608167        -6.2036086671 
H        0.1407045242         0.1828515668        -6.9547089500 
