         126

C        3.2306915316         1.0112497872         0.5611631373 
H        2.6091851250         1.8999572467         0.7531734485 
H        2.6325358611         0.1198437385         0.7854787848 
H        4.1027372121         1.0320380669         1.2365518398 
O        3.6212670718         0.9496458596        -0.8186885905 
H        4.1260737850         1.7985430869        -1.0417292764 
C        2.1043850332         3.3587896201         3.4387104823 
H        1.8689012894         2.9104497250         4.4147373264 
H        2.4336223601         4.3924340850         3.6085029211 
O        0.9536863485         3.3823430367         2.5769991092 
H        2.9340192257         2.8055311110         2.9723229076 
H        0.4263941166         2.5334614744         2.7362280422 
H        2.4336223601         0.0635670472         3.6085029211 
C        2.1043850332        -0.9700774177         3.4387104823 
H        1.8689012894        -1.4184173128         4.4147373264 
O        0.9536863485        -0.9465240011         2.5769991092 
H        2.9340192257        -1.5233359268         2.9723229076 
H        0.4263941166        -1.7954055634         2.7362280422 
O       -2.6502018511        -1.2147876593        -0.8186885905 
C       -3.0407773913        -1.1531837317         0.5611631373 
H       -2.1453951379        -0.3658904320        -1.0417292764 
H       -2.1687317108        -1.1323954520         1.2365518398 
H       -3.6622837979        -0.2644762722         0.7531734485 
H       -3.6389330618        -2.0445897804         0.7854787848 
H       -1.7882191996        -2.5334614744        -1.1708140761 
O       -1.2609269677        -3.3823430367        -1.3300430092 
C       -0.1102282830        -3.3587896201        -0.4683316360 
H        0.2190090439        -4.3924340850        -0.2985391973 
H       -0.3457120268        -2.9104497250         0.5076952081 
H        0.7194059095        -2.8055311110        -0.9347192108 
H       -2.5603253429        -1.4184173128        -3.3993469103 
C       -2.3248415991        -0.9700774177        -4.3753737544 
H       -1.9956042723         0.0635670472        -4.2055813156 
O       -3.4755402839        -0.9465240011        -5.2370851275 
H       -1.4952074067        -1.5233359268        -4.8417613291 
H       -4.0028325158        -1.7954055634        -5.0778561945 
O       -0.4355885349        -3.1140793785         3.0883535279 
C       -0.8261640751        -3.1756833061         4.4682052556 
H        0.0692181783        -3.9629766058         2.8653128419 
H        0.0458816054        -3.1964715858         5.1435939582 
H       -1.4476704817        -4.0643907656         4.6602155668 
H       -1.4243197456        -2.2842772574         4.6925209032 
H       -4.3833450270         1.1323954520        -2.6704902785 
C       -5.2553907075         1.1531837317        -3.3458789811 
H       -5.8768971141         0.2644762722        -3.1538686699 
H       -5.8535463780         2.0445897804        -3.1215633335 
O       -4.8648151673         1.2147876593        -4.7257307088 
H       -4.3600084541         0.3658904320        -4.9487713948 
O       -2.6502018511         3.1140793785        -0.8186885905 
C       -3.0407773913         3.1756833061         0.5611631373 
H       -2.1453951379         3.9629766058        -1.0417292764 
H       -2.1687317108         3.1964715858         1.2365518398 
H       -3.6622837979         4.0643907656         0.7531734485 
H       -3.6389330618         2.2842772574         0.7854787848 
H       -1.7882191996         1.7954055634        -1.1708140761 
O       -1.2609269677         0.9465240011        -1.3300430092 
C       -0.1102282830         0.9700774177        -0.4683316360 
H        0.2190090439        -0.0635670472        -0.2985391973 
H       -0.3457120268         1.4184173128         0.5076952081 
H        0.7194059095         1.5233359268        -0.9347192108 
H       -2.5603253429         2.9104497250        -3.3993469103 
C       -2.3248415991         3.3587896201        -4.3753737544 
H       -1.9956042723         4.3924340850        -4.2055813156 
O       -3.4755402839         3.3823430367        -5.2370851275 
H       -1.4952074067         2.8055311110        -4.8417613291 
H       -4.0028325158         2.5334614744        -5.0778561945 
C       -0.8261640751         1.1531837317         4.4682052556 
H        0.0458816054         1.1323954520         5.1435939582 
H       -1.4476704817         0.2644762722         4.6602155668 
H       -1.4243197456         2.0445897804         4.6925209032 
O       -0.4355885349         1.2147876593         3.0883535279 
H        0.0692181783         0.3658904320         2.8653128419 
H       -3.3374496972         0.6410975921         2.9723229076 
C       -4.1670838897         1.1943561012         3.4387104823 
H       -3.8378465628         2.2280005661         3.6085029211 
H       -4.4025676335         0.7460162061         4.4147373264 
O       -5.3177825744         1.2179095178         2.5769991092 
H       -5.8450748063         0.3690279555         2.7362280422 
C        1.0160782154        -1.0112497872        -3.3458789811 
H        0.3945718088        -1.8999572467        -3.1538686699 
H        0.4179225449        -0.1198437385        -3.1215633335 
H        1.8881238959        -1.0320380669        -2.6704902785 
O        1.4066537556        -0.9496458596        -4.7257307088 
H        1.9114604688        -1.7985430869        -4.9487713948 
O        3.6212670718        -3.3792211782        -0.8186885905 
C        3.2306915316        -3.3176172506         0.5611631373 
H        4.1260737850        -2.5303239509        -1.0417292764 
H        2.6091851250        -2.4289097911         0.7531734485 
H        2.6325358611        -4.2090232993         0.7854787848 
H        4.1027372121        -3.2968289709         1.2365518398 
H        4.4832497233        -0.3690279555        -1.1708140761 
O        5.0105419552        -1.2179095178        -1.3300430092 
C        6.1612406399        -1.1943561012        -0.4683316360 
H        5.9257568961        -0.7460162061         0.5076952081 
H        6.9908748324        -0.6410975921        -0.9347192108 
H        6.4904779668        -2.2280005661        -0.2985391973 
C        1.0160782154         3.3176172506        -3.3458789811 
H        0.3945718088         2.4289097911        -3.1538686699 
H        0.4179225449         4.2090232993        -3.1215633335 
H        1.8881238959         3.2968289709        -2.6704902785 
O        1.4066537556         3.3792211782        -4.7257307088 
H        1.9114604688         2.5303239509        -4.9487713948 
H        0.2190090439         4.2652999906        -0.2985391973 
C       -0.1102282830         5.2989444555        -0.4683316360 
H       -0.3457120268         5.7472843506         0.5076952081 
O       -1.2609269677         5.2753910389        -1.3300430092 
H        0.7194059095         5.8522029646        -0.9347192108 
H       -1.7882191996         6.1242726012        -1.1708140761 
H        3.7111435800         0.7460162061        -3.3993469103 
C        3.9466273238         1.1943561012        -4.3753737544 
H        4.2758646506         2.2280005661        -4.2055813156 
H        4.7762615162         0.6410975921        -4.8417613291 
O        2.7959286390         1.2179095178        -5.2370851275 
H        2.2686364071         0.3690279555        -5.0778561945 
H        2.6325358611         4.4487107763         0.7854787848 
C        3.2306915316         5.3401168250         0.5611631373 
H        2.6091851250         6.2288242845         0.7531734485 
H        4.1027372121         5.3609051047         1.2365518398 
O        3.6212670718         5.2785128974        -0.8186885905 
H        4.1260737850         6.1274101247        -1.0417292764 
H       -2.1453951379        -4.6947574698        -1.0417292764 
O       -2.6502018511        -5.5436546971        -0.8186885905 
C       -3.0407773913        -5.4820507695         0.5611631373 
H       -2.1687317108        -5.4612624898         1.2365518398 
H       -3.6622837979        -4.5933433100         0.7531734485 
H       -3.6389330618        -6.3734568182         0.7854787848 
