         102

C        1.3042862749         2.2170070109         2.5928133488 
H        0.3075362825         2.2855947784         3.0521052910 
O        2.2743499460         2.9478662203         3.3558009458 
H        1.2547385482         2.6732928572         1.5945746401 
H        1.5860047349         1.1567565538         2.4958738300 
H        2.4276050150         2.4791834499         4.2341461806 
H        0.7037295483         0.2499898312         5.1123725740 
C       -0.2930204441         0.1814020636         5.5716645162 
H       -0.5747389041        -0.8788483934         5.6686040350 
H       -0.2434727174         0.6376879100         6.5699032249 
O       -1.2630841151         0.9122612731         4.8086769192 
H       -1.4163391841         0.4435785027         3.9303316844 
C        4.6456533315         0.2941306897         1.3238520774 
O        4.6620771102        -0.3795762797         2.5794069300 
H        4.3092893659        -0.3774624770         0.5154078624 
H        5.6708344308         0.6185571440         1.0995437468 
H        3.9996828678         1.1878001900         1.3403705070 
H        3.7285351864        -0.6978950427         2.8027731108 
C       -1.3042862749        -3.8898078309        -2.5928133488 
H       -1.5860047349        -4.9500582879        -2.4958738300 
H       -1.2547385482        -3.4335219845        -1.5945746401 
H       -0.3075362825        -3.8212200633        -3.0521052910 
O       -2.2743499460        -3.1589486214        -3.3558009458 
H       -2.4276050150        -3.6276313918        -4.2341461806 
H       -1.5860047349        -0.8788483934        -2.4958738300 
C       -1.3042862749         0.1814020636        -2.5928133488 
H       -1.2547385482         0.6376879100        -1.5945746401 
H       -0.3075362825         0.2499898312        -3.0521052910 
O       -2.2743499460         0.9122612731        -3.3558009458 
H       -2.4276050150         0.4435785027        -4.2341461806 
C       -4.6456533315        -1.7414742576        -1.3238520774 
H       -3.9996828678        -0.8478047572        -1.3403705070 
H       -5.6708344308        -1.4170478032        -1.0995437468 
H       -4.3092893659        -2.4130674242        -0.5154078624 
O       -4.6620771102        -2.4151812269        -2.5794069300 
H       -3.7285351864        -2.7334999899        -2.8027731108 
H        0.3075362825        -1.7856151161         3.0521052910 
C        1.3042862749        -1.8542028836         2.5928133488 
O        2.2743499460        -1.1233436742         3.3558009458 
H        1.2547385482        -1.3979170373         1.5945746401 
H        1.5860047349        -2.9144533407         2.4958738300 
H        2.4276050150        -1.5920264446         4.2341461806 
H       -2.7887191468        -0.6978950427         2.8027731108 
O       -1.8551772230        -0.3795762797         2.5794069300 
C       -1.8716010017         0.2941306897         1.3238520774 
H       -2.2079649673        -0.3774624770         0.5154078624 
H       -0.8464199024         0.6185571440         1.0995437468 
H       -2.5175714654         1.1878001900         1.3403705070 
C       -1.8716010017        -3.7770792048         1.3238520774 
O       -1.8551772230        -4.4507861742         2.5794069300 
H       -2.2079649673        -4.4486723715         0.5154078624 
H       -0.8464199024        -3.4526527505         1.0995437468 
H       -2.5175714654        -2.8834097045         1.3403705070 
H       -2.7887191468        -4.7691049372         2.8027731108 
H       -1.5860047349         3.1923615011        -2.4958738300 
C       -1.3042862749         4.2526119581        -2.5928133488 
H       -1.2547385482         4.7088978045        -1.5945746401 
H       -0.3075362825         4.3211997257        -3.0521052910 
O       -2.2743499460         4.9834711676        -3.3558009458 
H       -2.4276050150         4.5147883972        -4.2341461806 
H       -3.7285351864         1.3377099046        -2.8027731108 
O       -4.6620771102         1.6560286676        -2.5794069300 
C       -4.6456533315         2.3297356369        -1.3238520774 
H       -3.9996828678         3.2234051373        -1.3403705070 
H       -5.6708344308         2.6541620913        -1.0995437468 
H       -4.3092893659         1.6581424703        -0.5154078624 
H       -2.7887191468         3.3733148518         2.8027731108 
O       -1.8551772230         3.6916336148         2.5794069300 
C       -1.8716010017         4.3653405842         1.3238520774 
H       -2.2079649673         3.6937474175         0.5154078624 
H       -0.8464199024         4.6897670385         1.0995437468 
H       -2.5175714654         5.2590100845         1.3403705070 
O        1.2630841151        -1.1233436742        -4.8086769192 
H        1.4163391841        -1.5920264446        -3.9303316844 
C        0.2930204441        -1.8542028836        -5.5716645162 
H       -0.7037295483        -1.7856151161        -5.1123725740 
H        0.2434727174        -1.3979170373        -6.5699032249 
H        0.5747389041        -2.9144533407        -5.6686040350 
H        2.7887191468        -2.7334999899        -2.8027731108 
O        1.8551772230        -2.4151812269        -2.5794069300 
C        1.8716010017        -1.7414742576        -1.3238520774 
H        2.5175714654        -0.8478047572        -1.3403705070 
H        0.8464199024        -1.4170478032        -1.0995437468 
H        2.2079649673        -2.4130674242        -0.5154078624 
H        3.9996828678        -2.8834097045         1.3403705070 
C        4.6456533315        -3.7770792048         1.3238520774 
O        4.6620771102        -4.4507861742         2.5794069300 
H        4.3092893659        -4.4486723715         0.5154078624 
H        5.6708344308        -3.4526527505         1.0995437468 
H        3.7285351864        -4.7691049372         2.8027731108 
H        1.4163391841         2.4791834499        -3.9303316844 
O        1.2630841151         2.9478662203        -4.8086769192 
C        0.2930204441         2.2170070109        -5.5716645162 
H       -0.7037295483         2.2855947784        -5.1123725740 
H        0.2434727174         2.6732928572        -6.5699032249 
H        0.5747389041         1.1567565538        -5.6686040350 
H        2.7887191468         1.3377099046        -2.8027731108 
O        1.8551772230         1.6560286676        -2.5794069300 
C        1.8716010017         2.3297356369        -1.3238520774 
H        2.5175714654         3.2234051373        -1.3403705070 
H        0.8464199024         2.6541620913        -1.0995437468 
H        2.2079649673         1.6581424703        -0.5154078624 
