         120

C        0.5718995210         3.2167432166         2.1989328790 
O       -0.3474629487         2.7450135923         1.2010250150 
H        0.2365985968         2.9473428681         3.2108842906 
H        1.5885145977         2.8192610674         2.0403199624 
H        0.6055127589         4.3112071128         2.1243574903 
H       -0.3963719758         1.7347344896         1.2496271624 
H        4.3758484938         1.7347344896         1.2496271624 
O        4.4247575209         2.7450135923         1.2010250150 
C        5.3441199906         3.2167432166         2.1989328790 
H        5.0088190664         2.9473428681         3.2108842906 
H        6.3607350673         2.8192610674         2.0403199624 
H        5.3777332285         4.3112071128         2.1243574903 
O        4.3070087124         0.1292353101         1.2142497248 
C        2.9773346590        -0.3827146166         1.3949664655 
H        4.6274869226        -0.1452580777         0.2940383728 
H        2.2979496655        -0.0494691861         0.5956094335 
H        2.6005639606        -0.0050836702         2.3540454041 
H        2.9838722433        -1.4832526826         1.4244860067 
C       -0.5718995210        -0.0486761621        -2.1989328790 
H       -0.2365985968        -0.3180765105        -3.2108842906 
O        0.3474629487        -0.5204057863        -1.2010250150 
H       -0.6055127589         1.0457877341        -2.1243574903 
H       -1.5885145977        -0.4461583112        -2.0403199624 
H        0.3963719758        -1.5306848890        -1.2496271624 
H       -0.5023972296        -3.5834958892        -3.6338751565 
C       -0.1670963054        -3.3140955407        -4.6458265682 
O       -1.0864587751        -3.7858251650        -5.6437344321 
H        0.8495187713        -3.7115776899        -4.8044394848 
H       -0.1334830675        -2.2196316445        -4.7204019568 
H       -1.1353678022        -4.7961042677        -5.5951322847 
O       -4.4247575209        -0.5204057863        -1.2010250150 
C       -5.3441199906        -0.0486761621        -2.1989328790 
H       -4.3758484938        -1.5306848890        -1.2496271624 
H       -5.0088190664        -0.3180765105        -3.2108842906 
H       -5.3777332285         1.0457877341        -2.1243574903 
H       -6.3607350673        -0.4461583112        -2.0403199624 
C       -2.9773346590        -3.6481339952        -1.3949664655 
H       -2.9838722433        -4.7486720613        -1.4244860067 
O       -4.3070087124        -3.1361840686        -1.2142497248 
H       -2.6005639606        -3.2705030488        -2.3540454041 
H       -2.2979496655        -3.3148885648        -0.5956094335 
H       -4.6274869226        -3.4106774564        -0.2940383728 
C        0.1670963054        -0.0486761621         4.6458265682 
H        0.5023972296        -0.3180765105         3.6338751565 
O        1.0864587751        -0.5204057863         5.6437344321 
H        0.1334830675         1.0457877341         4.7204019568 
H       -0.8495187713        -0.4461583112         4.8044394848 
H        1.1353678022        -1.5306848890         5.5951322847 
H       -4.1667077107        -2.2196316445         2.1243574903 
C       -4.2003209486        -3.3140955407         2.1989328790 
O       -5.1196834183        -3.7858251650         1.2010250150 
H       -4.5356218728        -3.5834958892         3.2108842906 
H       -3.1837058719        -3.7115776899         2.0403199624 
H       -5.1685924454        -4.7961042677         1.2496271624 
H        0.2365985968        -3.5834958892         3.2108842906 
C        0.5718995210        -3.3140955407         2.1989328790 
O       -0.3474629487        -3.7858251650         1.2010250150 
H        1.5885145977        -3.7115776899         2.0403199624 
H        0.6055127589        -2.2196316445         2.1243574903 
H       -0.3963719758        -4.7961042677         1.2496271624 
H       -0.1447335470        -0.1452580777         0.2940383728 
O       -0.4652117572         0.1292353101         1.2142497248 
C       -1.7948858106        -0.3827146166         1.3949664655 
H       -2.4742708041        -0.0494691861         0.5956094335 
H       -2.1716565090        -0.0050836702         2.3540454041 
H       -1.7883482263        -1.4832526826         1.4244860067 
H       -0.5023972296         2.9473428681        -3.6338751565 
C       -0.1670963054         3.2167432166        -4.6458265682 
O       -1.0864587751         2.7450135923        -5.6437344321 
H        0.8495187713         2.8192610674        -4.8044394848 
H       -0.1334830675         4.3112071128        -4.7204019568 
H       -1.1353678022         1.7347344896        -5.5951322847 
C       -2.9773346590         2.8827047621        -1.3949664655 
H       -2.9838722433         1.7821666960        -1.4244860067 
O       -4.3070087124         3.3946546887        -1.2142497248 
H       -2.6005639606         3.2603357085        -2.3540454041 
H       -2.2979496655         3.2159501925        -0.5956094335 
H       -4.6274869226         3.1201613009        -0.2940383728 
H       -3.1837058719         2.8192610674         2.0403199624 
C       -4.2003209486         3.2167432166         2.1989328790 
O       -5.1196834183         2.7450135923         1.2010250150 
H       -4.5356218728         2.9473428681         3.2108842906 
H       -4.1667077107         4.3112071128         2.1243574903 
H       -5.1685924454         1.7347344896         1.2496271624 
C        4.2003209486        -0.0486761621        -2.1989328790 
H        4.5356218728        -0.3180765105        -3.2108842906 
O        5.1196834183        -0.5204057863        -1.2010250150 
H        4.1667077107         1.0457877341        -2.1243574903 
H        3.1837058719        -0.4461583112        -2.0403199624 
H        5.1685924454        -1.5306848890        -1.2496271624 
H        0.1447335470        -3.4106774564        -0.2940383728 
O        0.4652117572        -3.1361840686        -1.2142497248 
C        1.7948858106        -3.6481339952        -1.3949664655 
H        1.7883482263        -4.7486720613        -1.4244860067 
H        2.1716565090        -3.2705030488        -2.3540454041 
H        2.4742708041        -3.3148885648        -0.5956094335 
H        1.8615681341        -0.0050836702        -4.4907140430 
C        2.2383388326        -0.3827146166        -5.4497929816 
H        1.5589538391        -0.0494691861        -6.2491500137 
O        3.5680128860         0.1292353101        -5.6305097224 
H        2.2448764169        -1.4832526826        -5.4202734404 
H        3.8884910962        -0.1452580777        -6.5507210743 
H        0.3963719758         5.0001538683        -1.2496271624 
O        0.3474629487         6.0104329710        -1.2010250150 
C       -0.5718995210         6.4821625952        -2.1989328790 
H       -0.2365985968         6.2127622468        -3.2108842906 
H       -0.6055127589         7.5766264914        -2.1243574903 
H       -1.5885145977         6.0846804461        -2.0403199624 
H        0.1447335470         3.1201613009        -0.2940383728 
O        0.4652117572         3.3946546887        -1.2142497248 
C        1.7948858106         2.8827047621        -1.3949664655 
H        1.7883482263         1.7821666960        -1.4244860067 
H        2.1716565090         3.2603357085        -2.3540454041 
H        2.4742708041         3.2159501925        -0.5956094335 
H       -4.9169540166        -0.1452580777         0.2940383728 
O       -5.2374322268         0.1292353101         1.2142497248 
C       -6.5671062802        -0.3827146166         1.3949664655 
H       -7.2464912737        -0.0494691861         0.5956094335 
H       -6.9438769786        -0.0050836702         2.3540454041 
H       -6.5605686959        -1.4832526826         1.4244860067 
