         132

C        0.0000000000         0.8275093615         1.7334476124 
O        0.0000000000         1.0806743045         3.1292647552 
H        0.8972242035         0.2645903749         1.4199394029 
H       -0.8972242035         0.2645903749         1.4199394029 
H        0.0000000000         1.7947037053         1.2107428327 
H        0.0000000000         0.2090010051         3.6254585705 
C        3.5363505686         3.1522269604         1.7334476124 
O        3.5363505686         3.4053919034         3.1292647552 
H        4.4335747721         2.5893079738         1.4199394029 
H        2.6391263651         2.5893079738         1.4199394029 
H        3.5363505686         4.1194213042         1.2107428327 
H        3.5363505686         2.5337186040         3.6254585705 
H        0.0000000000         2.5337186040         3.8748407167 
O        0.0000000000         3.4053919034         4.3710345320 
C        0.0000000000         3.1522269604         5.7668516748 
H        0.8972242035         2.5893079738         6.0803598844 
H       -0.8972242035         2.5893079738         6.0803598844 
H        0.0000000000         4.1194213042         6.2895564545 
H        3.5363505686         0.2090010051         3.8748407167 
O        3.5363505686         1.0806743045         4.3710345320 
C        3.5363505686         0.8275093615         5.7668516748 
H        2.6391263651         0.2645903749         6.0803598844 
H        4.4335747721         0.2645903749         6.0803598844 
H        3.5363505686         1.7947037053         6.2895564545 
C       -3.5363505686        -3.1522269604        -1.7334476124 
H       -2.6391263651        -2.5893079738        -1.4199394029 
H       -4.4335747721        -2.5893079738        -1.4199394029 
H       -3.5363505686        -4.1194213042        -1.2107428327 
O       -3.5363505686        -3.4053919034        -3.1292647552 
H       -3.5363505686        -2.5337186040        -3.6254585705 
H       -0.8972242035        -0.2645903749        -1.4199394029 
C       -0.0000000000        -0.8275093615        -1.7334476124 
H        0.8972242035        -0.2645903749        -1.4199394029 
H       -0.0000000000        -1.7947037053        -1.2107428327 
O       -0.0000000000        -1.0806743045        -3.1292647552 
H       -0.0000000000        -0.2090010051        -3.6254585705 
H       -3.5363505686        -0.2090010051        -3.8748407167 
O       -3.5363505686        -1.0806743045        -4.3710345320 
C       -3.5363505686        -0.8275093615        -5.7668516748 
H       -4.4335747721        -0.2645903749        -6.0803598844 
H       -2.6391263651        -0.2645903749        -6.0803598844 
H       -3.5363505686        -1.7947037053        -6.2895564545 
C       -3.5363505686        -1.4972082374         1.7334476124 
O       -3.5363505686        -1.2440432944         3.1292647552 
H       -2.6391263651        -2.0601272240         1.4199394029 
H       -4.4335747721        -2.0601272240         1.4199394029 
H       -3.5363505686        -0.5300138936         1.2107428327 
H       -3.5363505686        -2.1157165938         3.6254585705 
H       -0.8972242035        -4.3848448229         1.4199394029 
C       -0.0000000000        -3.8219258363         1.7334476124 
O       -0.0000000000        -3.5687608933         3.1292647552 
H        0.8972242035        -4.3848448229         1.4199394029 
H       -0.0000000000        -2.8547314925         1.2107428327 
H       -0.0000000000        -4.4404341927         3.6254585705 
C       -3.5363505686         1.4972082374        -1.7334476124 
H       -2.6391263651         2.0601272240        -1.4199394029 
H       -4.4335747721         2.0601272240        -1.4199394029 
H       -3.5363505686         0.5300138936        -1.2107428327 
O       -3.5363505686         1.2440432944        -3.1292647552 
H       -3.5363505686         2.1157165938        -3.6254585705 
H       -0.8972242035         4.3848448229        -1.4199394029 
C        0.0000000000         3.8219258363        -1.7334476124 
H        0.8972242035         4.3848448229        -1.4199394029 
H        0.0000000000         2.8547314925        -1.2107428327 
O        0.0000000000         3.5687608933        -3.1292647552 
H        0.0000000000         4.4404341927        -3.6254585705 
C       -3.5363505686         3.1522269604         1.7334476124 
O       -3.5363505686         3.4053919034         3.1292647552 
H       -2.6391263651         2.5893079738         1.4199394029 
H       -4.4335747721         2.5893079738         1.4199394029 
H       -3.5363505686         4.1194213042         1.2107428327 
H       -3.5363505686         2.5337186040         3.6254585705 
H       -3.5363505686         0.2090010051         3.8748407167 
O       -3.5363505686         1.0806743045         4.3710345320 
C       -3.5363505686         0.8275093615         5.7668516748 
H       -4.4335747721         0.2645903749         6.0803598844 
H       -2.6391263651         0.2645903749         6.0803598844 
H       -3.5363505686         1.7947037053         6.2895564545 
H       -0.8972242035         4.9140255727         1.4199394029 
C        0.0000000000         5.4769445593         1.7334476124 
O        0.0000000000         5.7301095023         3.1292647552 
H        0.8972242035         4.9140255727         1.4199394029 
H        0.0000000000         6.4441389031         1.2107428327 
H        0.0000000000         4.8584362029         3.6254585705 
C        3.5363505686        -3.1522269604        -1.7334476124 
H        4.4335747721        -2.5893079738        -1.4199394029 
H        2.6391263651        -2.5893079738        -1.4199394029 
H        3.5363505686        -4.1194213042        -1.2107428327 
O        3.5363505686        -3.4053919034        -3.1292647552 
H        3.5363505686        -2.5337186040        -3.6254585705 
H       -0.0000000000        -2.5337186040        -3.8748407167 
O       -0.0000000000        -3.4053919034        -4.3710345320 
C       -0.0000000000        -3.1522269604        -5.7668516748 
H       -0.8972242035        -2.5893079738        -6.0803598844 
H        0.8972242035        -2.5893079738        -6.0803598844 
H       -0.0000000000        -4.1194213042        -6.2895564545 
H        3.5363505686        -0.2090010051        -3.8748407167 
O        3.5363505686        -1.0806743045        -4.3710345320 
C        3.5363505686        -0.8275093615        -5.7668516748 
H        2.6391263651        -0.2645903749        -6.0803598844 
H        4.4335747721        -0.2645903749        -6.0803598844 
H        3.5363505686        -1.7947037053        -6.2895564545 
C        3.5363505686        -1.4972082374         1.7334476124 
O        3.5363505686        -1.2440432944         3.1292647552 
H        4.4335747721        -2.0601272240         1.4199394029 
H        2.6391263651        -2.0601272240         1.4199394029 
H        3.5363505686        -0.5300138936         1.2107428327 
H        3.5363505686        -2.1157165938         3.6254585705 
O        0.0000000000        -1.2440432944         4.3710345320 
C        0.0000000000        -1.4972082374         5.7668516748 
H        0.0000000000        -2.1157165938         3.8748407167 
H        0.8972242035        -2.0601272240         6.0803598844 
H       -0.8972242035        -2.0601272240         6.0803598844 
H        0.0000000000        -0.5300138936         6.2895564545 
C        3.5363505686         1.4972082374        -1.7334476124 
H        4.4335747721         2.0601272240        -1.4199394029 
H        2.6391263651         2.0601272240        -1.4199394029 
H        3.5363505686         0.5300138936        -1.2107428327 
O        3.5363505686         1.2440432944        -3.1292647552 
H        3.5363505686         2.1157165938        -3.6254585705 
O       -0.0000000000         1.2440432944        -4.3710345320 
H       -0.0000000000         2.1157165938        -3.8748407167 
C       -0.0000000000         1.4972082374        -5.7668516748 
H       -0.8972242035         2.0601272240        -6.0803598844 
H        0.8972242035         2.0601272240        -6.0803598844 
H       -0.0000000000         0.5300138936        -6.2895564545 
H       -0.8972242035        -4.9140255727        -1.4199394029 
C       -0.0000000000        -5.4769445593        -1.7334476124 
H        0.8972242035        -4.9140255727        -1.4199394029 
H       -0.0000000000        -6.4441389031        -1.2107428327 
O       -0.0000000000        -5.7301095023        -3.1292647552 
H       -0.0000000000        -4.8584362029        -3.6254585705 
