         102

H        3.6100607666         3.1180582768         0.9191491616 
C        3.5137080055         2.6560850610        -0.0794002270 
O        4.2846462306         1.4557136831        -0.1615585134 
H        2.4490638974         2.4665932313        -0.2806375006 
H        3.9017674599         3.3686363624        -0.8212855613 
H        3.7529857423         0.6903281060         0.2318034124 
H        1.5163839856         1.5026315960         2.0090725884 
C        1.5120153311         1.7545375236         3.0770068506 
H        2.5432734963         1.9677541823         3.4034650080 
H        0.8972568098         2.6591235767         3.2152682147 
O        0.9502812362         0.6457051527         3.7849861180 
H        0.7731453947         0.9247319988         4.7343179247 
C       -2.6213825037        -2.6560850610        -3.2846592205 
O       -1.8504442787        -1.4557136831        -3.3668175069 
H       -3.6860266118        -2.4665932313        -3.4858964940 
H       -2.2333230493        -3.3686363624        -4.0265445548 
H       -2.5250297426        -3.1180582768        -2.2861098318 
H       -2.3821047669        -0.6903281060        -2.9734555810 
C       -0.5748887482        -1.7545375236        -0.1282521429 
H        0.4563694170        -1.9677541823         0.1982060146 
O       -1.1366228432        -0.6457051527         0.5797271246 
H       -1.1896472695        -2.6591235767         0.0100092212 
H       -0.5705200937        -1.5026315960        -1.1961864051 
H       -1.3137586846        -0.9247319988         1.5290589313 
H       -4.6187065236        -1.5026315960        -1.1961864051 
C       -4.6230751781        -1.7545375236        -0.1282521429 
H       -3.5918170129        -1.9677541823         0.1982060146 
O       -5.1848092731        -0.6457051527         0.5797271246 
H       -5.2378336994        -2.6591235767         0.0100092212 
H       -5.3619451145        -0.9247319988         1.5290589313 
C        1.5524256550        -2.6560850610         3.1258587664 
O        2.3233638800        -1.4557136831         3.0437004800 
H        0.4877815469        -2.4665932313         2.9246214929 
H        1.9404851094        -3.3686363624         2.3839734321 
H        1.6487784160        -3.1180582768         4.1244081551 
H        1.7917033917        -0.6903281060         3.4370624059 
H       -0.4381256633        -5.0509850833         0.9191491616 
C       -0.5344784244        -5.5129582991        -0.0794002270 
O        0.2364598007        -6.7133296770        -0.1615585134 
H       -1.5991225325        -5.7024501288        -0.2806375006 
H       -0.1464189700        -4.8004069977        -0.8212855613 
H       -0.2952006876        -7.4787152541         0.2318034124 
H       -2.1077013205        -3.3686363624         2.3839734321 
C       -2.4957607749        -2.6560850610         3.1258587664 
O       -1.7248225499        -1.4557136831         3.0437004800 
H       -3.5604048830        -2.4665932313         2.9246214929 
H       -2.3994080139        -3.1180582768         4.1244081551 
H       -2.2564830382        -0.6903281060         3.4370624059 
C       -0.5344784244         2.6560850610        -0.0794002270 
O        0.2364598007         1.4557136831        -0.1615585134 
H       -0.4381256633         3.1180582768         0.9191491616 
H       -1.5991225325         2.4665932313        -0.2806375006 
H       -0.1464189700         3.3686363624        -0.8212855613 
H       -0.2952006876         0.6903281060         0.2318034124 
O       -3.8117266292         1.4557136831        -0.1615585134 
C       -4.5826648543         2.6560850610        -0.0794002270 
H       -4.3433871175         0.6903281060         0.2318034124 
H       -4.4863120932         3.1180582768         0.9191491616 
H       -5.6473089624         2.4665932313        -0.2806375006 
H       -4.1946053999         3.3686363624        -0.8212855613 
C       -2.6617928276         1.7545375236        -3.3335111363 
H       -1.6305346624         1.9677541823        -3.0070529789 
H       -3.2765513488         2.6591235767        -3.1952497722 
O       -3.2235269225         0.6457051527        -2.6255318689 
H       -2.6574241731         1.5026315960        -4.4014453985 
H       -3.4006627639         0.9247319988        -1.6762000622 
H       -2.5318024443         1.5026315960         2.0090725884 
C       -2.5361710988         1.7545375236         3.0770068506 
H       -1.5049129336         1.9677541823         3.4034650080 
H       -3.1509296201         2.6591235767         3.2152682147 
O       -3.0979051937         0.6457051527         3.7849861180 
H       -3.2750410352         0.9247319988         4.7343179247 
C        1.4268039262        -2.6560850610        -3.2846592205 
O        2.1977421512        -1.4557136831        -3.3668175069 
H        0.3621598181        -2.4665932313        -3.4858964940 
H        1.8148633806        -3.3686363624        -4.0265445548 
H        1.5231566873        -3.1180582768        -2.2861098318 
H        1.6660816630        -0.6903281060        -2.9734555810 
C        3.4732976817        -1.7545375236        -0.1282521429 
H        4.5045558469        -1.9677541823         0.1982060146 
O        2.9115635867        -0.6457051527         0.5797271246 
H        2.8585391604        -2.6591235767         0.0100092212 
H        3.4776663362        -1.5026315960        -1.1961864051 
H        2.7344277453        -0.9247319988         1.5290589313 
H       -1.4393804134        -0.9247319988        -4.8814590556 
O       -1.2622445719        -0.6457051527        -5.8307908623 
C       -0.7005104770        -1.7545375236        -6.5387701297 
H        0.3307476882        -1.9677541823        -6.2123119723 
H       -1.3152689983        -2.6591235767        -6.4005087657 
H       -0.6961418225        -1.5026315960        -7.6067043919 
H        0.7716350811         2.6591235767        -3.1952497722 
C        1.3863936023         1.7545375236        -3.3335111363 
H        2.4176517675         1.9677541823        -3.0070529789 
O        0.8246595074         0.6457051527        -2.6255318689 
H        1.3907622568         1.5026315960        -4.4014453985 
H        0.6475236660         0.9247319988        -1.6762000622 
H        4.6957100959         0.9247319988        -1.6762000622 
O        4.8728459373         0.6457051527        -2.6255318689 
C        5.4345800322         1.7545375236        -3.3335111363 
H        6.4658381974         1.9677541823        -3.0070529789 
H        4.8198215110         2.6591235767        -3.1952497722 
H        5.4389486867         1.5026315960        -4.4014453985 
