         108

H        0.5081317194         2.5464794038         4.5696472565 
C        1.5555995625         2.3816143253         4.8698451669 
H        1.7688901507         1.3010189027         4.8560080831 
O        2.4478842440         3.1052748052         4.0181072095 
H        1.6840871192         2.7556582969         5.8953370284 
H        2.6531022843         2.5566605470         3.1931198665 
H        4.0858412562         1.4028303157         2.1919512145 
O        3.2168426921         1.8079594256         1.8765054210 
C        2.4637006328         0.8125109618         1.1664139558 
H        2.2853806908        -0.0782475923         1.7852092844 
H        1.4966730761         1.2577588865         0.9006076369 
H        2.9788624983         0.5191275234         0.2384400860 
H        2.2853806908         4.3577043714         1.7852092844 
C        2.4637006328         5.2484629255         1.1664139558 
H        1.4966730761         5.6937108502         0.9006076369 
H        2.9788624983         4.9550794871         0.2384400860 
O        3.2168426921         6.2439113893         1.8765054210 
H        4.0858412562         5.8387822794         2.1919512145 
H       -0.5081317194        -1.8894725599        -4.5696472565 
C       -1.5555995625        -2.0543376384        -4.8698451669 
H       -1.7688901507        -3.1349330610        -4.8560080831 
H       -1.6840871192        -1.6802936668        -5.8953370284 
O       -2.4478842440        -1.3306771585        -4.0181072095 
H       -2.6531022843        -1.8792914167        -3.1931198665 
O       -3.2168426921        -2.6279925381        -1.8765054210 
H       -4.0858412562        -3.0331216480        -2.1919512145 
C       -2.4637006328        -3.6234410019        -1.1664139558 
H       -2.9788624983        -3.9168244403        -0.2384400860 
H       -2.2853806908        -4.5141995560        -1.7852092844 
H       -1.4966730761        -3.1781930772        -0.9006076369 
H       -2.2853806908        -0.0782475923        -1.7852092844 
C       -2.4637006328         0.8125109618        -1.1664139558 
H       -2.9788624983         0.5191275234        -0.2384400860 
O       -3.2168426921         1.8079594256        -1.8765054210 
H       -1.4966730761         1.2577588865        -0.9006076369 
H       -4.0858412562         1.4028303157        -2.1919512145 
C       -0.9418091221        -2.0543376384         1.9744988928 
H       -1.1550997103        -3.1349330610         1.9883359765 
H       -1.0702966788        -1.6802936668         0.9490070312 
H        0.1056587210        -1.8894725599         2.2746968032 
O       -1.8340938036        -1.3306771585         2.8262368501 
H       -2.0393118439        -1.8792914167         3.6512241931 
H       -3.2317464668        -0.8151456662         2.1919512145 
O       -4.1007450309        -0.4100165562         1.8765054210 
C       -4.8538870902        -1.4054650201         1.1664139558 
H       -5.0322070322        -2.2962235741         1.7852092844 
H       -5.8209146469        -0.9602170954         0.9006076369 
H       -4.3387252247        -1.6988484585         0.2384400860 
H       -0.5081317194         2.5464794038        -4.5696472565 
C       -1.5555995625         2.3816143253        -4.8698451669 
H       -1.7688901507         1.3010189027        -4.8560080831 
H       -1.6840871192         2.7556582969        -5.8953370284 
O       -2.4478842440         3.1052748052        -4.0181072095 
H       -2.6531022843         2.5566605470        -3.1931198665 
H       -2.2853806908         4.3577043714        -1.7852092844 
C       -2.4637006328         5.2484629255        -1.1664139558 
H       -2.9788624983         4.9550794871        -0.2384400860 
O       -3.2168426921         6.2439113893        -1.8765054210 
H       -1.4966730761         5.6937108502        -0.9006076369 
H       -4.0858412562         5.8387822794        -2.1919512145 
C       -0.9418091221         2.3816143253         1.9744988928 
H       -1.1550997103         1.3010189027         1.9883359765 
H       -1.0702966788         2.7556582969         0.9490070312 
H        0.1056587210         2.5464794038         2.2746968032 
O       -1.8340938036         3.1052748052         2.8262368501 
H       -2.0393118439         2.5566605470         3.6512241931 
H       -4.3387252247         2.7371035052         0.2384400860 
C       -4.8538870902         3.0304869436         1.1664139558 
H       -5.0322070322         2.1397283896         1.7852092844 
H       -5.8209146469         3.4757348683         0.9006076369 
O       -4.1007450309         4.0259354075         1.8765054210 
H       -3.2317464668         3.6208062975         2.1919512145 
C        0.9418091221        -2.0543376384        -1.9744988928 
H        1.1550997103        -3.1349330610        -1.9883359765 
O        1.8340938036        -1.3306771585        -2.8262368501 
H        1.0702966788        -1.6802936668        -0.9490070312 
H       -0.1056587210        -1.8894725599        -2.2746968032 
H        2.0393118439        -1.8792914167        -3.6512241931 
H        3.2317464668        -0.8151456662        -2.1919512145 
O        4.1007450309        -0.4100165562        -1.8765054210 
C        4.8538870902        -1.4054650201        -1.1664139558 
H        5.0322070322        -2.2962235741        -1.7852092844 
H        4.3387252247        -1.6988484585        -0.2384400860 
H        5.8209146469        -0.9602170954        -0.9006076369 
H        0.5081317194        -1.8894725599         4.5696472565 
C        1.5555995625        -2.0543376384         4.8698451669 
H        1.7688901507        -3.1349330610         4.8560080831 
O        2.4478842440        -1.3306771585         4.0181072095 
H        1.6840871192        -1.6802936668         5.8953370284 
H        2.6531022843        -1.8792914167         3.1931198665 
O        3.2168426921        -2.6279925381         1.8765054210 
C        2.4637006328        -3.6234410019         1.1664139558 
H        4.0858412562        -3.0331216480         2.1919512145 
H        2.2853806908        -4.5141995560         1.7852092844 
H        1.4966730761        -3.1781930772         0.9006076369 
H        2.9788624983        -3.9168244403         0.2384400860 
C        0.9418091221         2.3816143253        -1.9744988928 
H        1.1550997103         1.3010189027        -1.9883359765 
O        1.8340938036         3.1052748052        -2.8262368501 
H        1.0702966788         2.7556582969        -0.9490070312 
H       -0.1056587210         2.5464794038        -2.2746968032 
H        2.0393118439         2.5566605470        -3.6512241931 
H        4.3387252247         2.7371035052        -0.2384400860 
C        4.8538870902         3.0304869436        -1.1664139558 
H        5.0322070322         2.1397283896        -1.7852092844 
O        4.1007450309         4.0259354075        -1.8765054210 
H        5.8209146469         3.4757348683        -0.9006076369 
H        3.2317464668         3.6208062975        -2.1919512145 
