         108

C        1.5923090119         1.3975621664         2.0882645920 
H        1.5537081778         1.9164659752         3.0563591249 
O        2.5874698831         0.3651147983         2.1509016020 
H        0.6009958613         0.9643080380         1.8778014238 
H        1.8345584863         2.1345184187         1.3088207052 
H        3.1131069898         0.3597093423         1.2850336715 
H        3.4800775687         0.3597093423         3.4648715608 
O        4.0057146755         0.3651147983         4.3307394913 
C        5.0008755467         1.3975621664         4.2681024813 
H        5.9921886973         0.9643080380         4.0576393131 
H        5.0394763808         1.9164659752         5.2361970142 
H        4.7586260722         2.1345184187         3.4886585945 
C       -5.0008755467        -1.3975621664        -0.0915732973 
H       -5.0394763808        -1.9164659752         0.8765212356 
O       -4.0057146755        -0.3651147983        -0.0289362873 
H       -4.7586260722        -2.1345184187        -0.8710171841 
H       -5.9921886973        -0.9643080380        -0.3020364655 
H       -3.4800775687        -0.3597093423        -0.8948042178 
C       -1.5923090119        -1.3975621664        -2.2714111866 
H       -1.5537081778        -1.9164659752        -1.3033166537 
O       -2.5874698831        -0.3651147983        -2.2087741766 
H       -0.6009958613        -0.9643080380        -2.4818743548 
H       -1.8345584863        -2.1345184187        -3.0508550734 
H       -3.1131069898        -0.3597093423        -3.0746421071 
H       -0.6009958613        -4.7211310961        -0.3020364655 
C       -1.5923090119        -5.1543852245        -0.0915732973 
O       -2.5874698831        -4.1219378564        -0.0289362873 
H       -1.5537081778        -5.6732890333         0.8765212356 
H       -1.8345584863        -5.8913414768        -0.8710171841 
H       -3.1131069898        -4.1165324004        -0.8948042178 
C       -1.5923090119        -1.3975621664         2.0882645920 
H       -1.5537081778        -1.9164659752         3.0563591249 
O       -2.5874698831        -0.3651147983         2.1509016020 
H       -0.6009958613        -0.9643080380         1.8778014238 
H       -1.8345584863        -2.1345184187         1.3088207052 
H       -3.1131069898        -0.3597093423         1.2850336715 
H       -3.4800775687        -0.3597093423         3.4648715608 
O       -4.0057146755        -0.3651147983         4.3307394913 
C       -5.0008755467        -1.3975621664         4.2681024813 
H       -5.0394763808        -1.9164659752         5.2361970142 
H       -4.7586260722        -2.1345184187         3.4886585945 
H       -5.9921886973        -0.9643080380         4.0576393131 
C       -1.5923090119         2.3592608917        -0.0915732973 
O       -2.5874698831         3.3917082598        -0.0289362873 
H       -0.6009958613         2.7925150201        -0.3020364655 
H       -1.5537081778         1.8403570829         0.8765212356 
H       -1.8345584863         1.6223046394        -0.8710171841 
H       -3.1131069898         3.3971137158        -0.8948042178 
H       -1.5537081778         1.8403570829        -3.4831545430 
C       -1.5923090119         2.3592608917        -4.4512490759 
O       -2.5874698831         3.3917082598        -4.3886120659 
H       -0.6009958613         2.7925150201        -4.6617122441 
H       -1.8345584863         1.6223046394        -5.2306929627 
H       -3.1131069898         3.3971137158        -5.2544799964 
C       -1.5923090119         2.3592608917         4.2681024813 
O       -2.5874698831         3.3917082598         4.3307394913 
H       -0.6009958613         2.7925150201         4.0576393131 
H       -1.5537081778         1.8403570829         5.2361970142 
H       -1.8345584863         1.6223046394         3.4886585945 
H       -3.1131069898         3.3971137158         3.4648715608 
H       -4.7586260722         1.6223046394         1.3088207052 
C       -5.0008755467         2.3592608917         2.0882645920 
H       -5.0394763808         1.8403570829         3.0563591249 
O       -4.0057146755         3.3917082598         2.1509016020 
H       -5.9921886973         2.7925150201         1.8778014238 
H       -3.4800775687         3.3971137158         1.2850336715 
C        1.5923090119        -2.3592608917        -0.0915732973 
H        1.5537081778        -1.8403570829         0.8765212356 
H        1.8345584863        -1.6223046394        -0.8710171841 
O        2.5874698831        -3.3917082598        -0.0289362873 
H        0.6009958613        -2.7925150201        -0.3020364655 
H        3.1131069898        -3.3971137158        -0.8948042178 
H        1.5537081778        -1.8403570829        -3.4831545430 
C        1.5923090119        -2.3592608917        -4.4512490759 
H        1.8345584863        -1.6223046394        -5.2306929627 
O        2.5874698831        -3.3917082598        -4.3886120659 
H        0.6009958613        -2.7925150201        -4.6617122441 
H        3.1131069898        -3.3971137158        -5.2544799964 
C        1.5923090119        -2.3592608917         4.2681024813 
H        1.5537081778        -1.8403570829         5.2361970142 
H        1.8345584863        -1.6223046394         3.4886585945 
O        2.5874698831        -3.3917082598         4.3307394913 
H        0.6009958613        -2.7925150201         4.0576393131 
H        3.1131069898        -3.3971137158         3.4648715608 
H        4.7586260722        -1.6223046394         1.3088207052 
C        5.0008755467        -2.3592608917         2.0882645920 
H        5.0394763808        -1.8403570829         3.0563591249 
H        5.9921886973        -2.7925150201         1.8778014238 
O        4.0057146755        -3.3917082598         2.1509016020 
H        3.4800775687        -3.3971137158         1.2850336715 
C        5.0008755467         1.3975621664        -0.0915732973 
H        5.9921886973         0.9643080380        -0.3020364655 
H        5.0394763808         1.9164659752         0.8765212356 
O        4.0057146755         0.3651147983        -0.0289362873 
H        4.7586260722         2.1345184187        -0.8710171841 
H        3.4800775687         0.3597093423        -0.8948042178 
C        1.5923090119         1.3975621664        -2.2714111866 
H        1.5537081778         1.9164659752        -1.3033166537 
O        2.5874698831         0.3651147983        -2.2087741766 
H        0.6009958613         0.9643080380        -2.4818743548 
H        1.8345584863         2.1345184187        -3.0508550734 
H        3.1131069898         0.3597093423        -3.0746421071 
H        0.6009958613         4.7211310961        -0.3020364655 
C        1.5923090119         5.1543852245        -0.0915732973 
H        1.5537081778         5.6732890333         0.8765212356 
H        1.8345584863         5.8913414768        -0.8710171841 
O        2.5874698831         4.1219378564        -0.0289362873 
H        3.1131069898         4.1165324004        -0.8948042178 
