         108

C        3.3320252743         0.1210000892         0.1709975068 
H        2.3123409689        -0.2044277539        -0.0695866175 
H        3.7908120877         0.5264664936        -0.7445688834 
H        3.9184866107        -0.7567334123         0.4894637178 
O        3.2688265868         1.1047315903         1.2099219521 
H        4.1458429883         1.6087943583         1.2296108876 
C        1.1086012095         3.4491769372         0.1709975068 
H        1.5673880229         3.0437105328        -0.7445688834 
H        0.0889169042         3.7746047802        -0.0695866175 
O        1.0454025221         2.4654454360         1.2099219521 
H        1.6950625459         4.3269104386         0.4894637178 
H        1.9224189235         1.9613826680         1.2296108876 
H        2.1345071606         0.2044277539         3.3872002008 
C        1.1148228552        -0.1210000892         3.6277843252 
O        1.1780215427        -1.1047315903         4.6667087705 
H        0.5283615188         0.7567334123         3.9462505361 
H        0.6560360418        -0.5264664936         2.7122179350 
H        0.3010051412        -1.6087943583         4.6863977059 
C       -3.3320252743        -0.1210000892        -3.2857893115 
O       -3.2688265868        -1.1047315903        -2.2468648662 
H       -3.9184866107         0.7567334123        -2.9673231006 
H       -2.3123409689         0.2044277539        -3.5263734359 
H       -3.7908120877        -0.5264664936        -4.2013557017 
H       -4.1458429883        -1.6087943583        -2.2271759308 
C       -1.1086012095        -3.4491769372        -3.2857893115 
O       -1.0454025221        -2.4654454360        -2.2468648662 
H       -1.5673880229        -3.0437105328        -4.2013557017 
H       -1.6950625459        -4.3269104386        -2.9673231006 
H       -0.0889169042        -3.7746047802        -3.5263734359 
H       -1.9224189235        -1.9613826680        -2.2271759308 
H       -2.1345071606        -0.2044277539        -0.0695866175 
C       -1.1148228552         0.1210000892         0.1709975068 
H       -0.6560360418         0.5264664936        -0.7445688834 
H       -0.5283615188        -0.7567334123         0.4894637178 
O       -1.1780215427         1.1047315903         1.2099219521 
H       -0.3010051412         1.6087943583         1.2296108876 
H       -2.8794601066        -4.0966435199        -0.7445688834 
C       -3.3382469200        -3.6911771155         0.1709975068 
H       -4.3579312253        -3.3657492725        -0.0695866175 
O       -3.4014456074        -4.6749086167         1.2099219521 
H       -2.7517855836        -2.8134436141         0.4894637178 
H       -2.5244292060        -5.1789713847         1.2296108876 
C       -3.3320252743        -0.1210000892         3.6277843252 
O       -3.2688265868        -1.1047315903         4.6667087705 
H       -3.9184866107         0.7567334123         3.9462505361 
H       -2.3123409689         0.2044277539         3.3872002008 
H       -3.7908120877        -0.5264664936         2.7122179350 
H       -4.1458429883        -1.6087943583         4.6863977059 
C       -1.1086012095        -3.4491769372         3.6277843252 
O       -1.0454025221        -2.4654454360         4.6667087705 
H       -1.5673880229        -3.0437105328         2.7122179350 
H       -1.6950625459        -4.3269104386         3.9462505361 
H       -0.0889169042        -3.7746047802         3.3872002008 
H       -1.9224189235        -1.9613826680         4.6863977059 
C       -1.1086012095         3.6911771155        -3.2857893115 
O       -1.0454025221         4.6749086167        -2.2468648662 
H       -1.5673880229         4.0966435199        -4.2013557017 
H       -1.6950625459         2.8134436141        -2.9673231006 
H       -0.0889169042         3.3657492725        -3.5263734359 
H       -1.9224189235         5.1789713847        -2.2271759308 
H       -2.8794601066         3.0437105328        -0.7445688834 
C       -3.3382469200         3.4491769372         0.1709975068 
H       -4.3579312253         3.7746047802        -0.0695866175 
O       -3.4014456074         2.4654454360         1.2099219521 
H       -2.7517855836         4.3269104386         0.4894637178 
H       -2.5244292060         1.9613826680         1.2296108876 
H       -0.0889169042         3.3657492725         3.3872002008 
C       -1.1086012095         3.6911771155         3.6277843252 
O       -1.0454025221         4.6749086167         4.6667087705 
H       -1.5673880229         4.0966435199         2.7122179350 
H       -1.6950625459         2.8134436141         3.9462505361 
H       -1.9224189235         5.1789713847         4.6863977059 
C        1.1148228552        -0.1210000892        -3.2857893115 
O        1.1780215427        -1.1047315903        -2.2468648662 
H        0.5283615188         0.7567334123        -2.9673231006 
H        2.1345071606         0.2044277539        -3.5263734359 
H        0.6560360418        -0.5264664936        -4.2013557017 
H        0.3010051412        -1.6087943583        -2.2271759308 
H        0.0889169042        -3.3657492725        -0.0695866175 
C        1.1086012095        -3.6911771155         0.1709975068 
H        1.5673880229        -4.0966435199        -0.7445688834 
O        1.0454025221        -4.6749086167         1.2099219521 
H        1.6950625459        -2.8134436141         0.4894637178 
H        1.9224189235        -5.1789713847         1.2296108876 
O        3.4014456074        -2.4654454360        -2.2468648662 
H        2.5244292060        -1.9613826680        -2.2271759308 
C        3.3382469200        -3.4491769372        -3.2857893115 
H        2.8794601066        -3.0437105328        -4.2013557017 
H        2.7517855836        -4.3269104386        -2.9673231006 
H        4.3579312253        -3.7746047802        -3.5263734359 
H        2.8794601066        -3.0437105328         2.7122179350 
C        3.3382469200        -3.4491769372         3.6277843252 
O        3.4014456074        -2.4654454360         4.6667087705 
H        2.7517855836        -4.3269104386         3.9462505361 
H        4.3579312253        -3.7746047802         3.3872002008 
H        2.5244292060        -1.9613826680         4.6863977059 
H        2.7517855836         2.8134436141        -2.9673231006 
C        3.3382469200         3.6911771155        -3.2857893115 
O        3.4014456074         4.6749086167        -2.2468648662 
H        2.8794601066         4.0966435199        -4.2013557017 
H        4.3579312253         3.3657492725        -3.5263734359 
H        2.5244292060         5.1789713847        -2.2271759308 
H       -4.9752096483        -0.7567334123         0.4894637178 
C       -5.5616709847         0.1210000892         0.1709975068 
H       -6.5813552901        -0.2044277539        -0.0695866175 
H       -5.1028841713         0.5264664936        -0.7445688834 
O       -5.6248696722         1.1047315903         1.2099219521 
H       -4.7478532707         1.6087943583         1.2296108876 
