         120

H        4.0552828419         1.1430185582         1.1389435156 
C        4.7166341247         1.5221390691         1.9307268458 
H        5.7545866820         1.2183357753         1.7250321882 
H        4.3898922574         1.1107453097         2.8929061577 
O        4.6102786854         2.9531487170         2.0205884352 
H        4.5510270460         3.3416507023         1.0987605788 
H        1.8472913773         1.7379816202         2.1260952467 
C        1.1742401409         1.8211752292         1.2566222255 
O        1.8736574645         2.1566970318         0.0552997261 
H        0.6968929539         0.8467801453         1.0908125137 
H        0.3917894565         2.5611799009         1.4933087036 
H        2.3848561544         2.9806211445         0.2026004320 
C       -2.7031332532        -1.9714525974        -2.7272016285 
H       -3.3644845359        -2.3505731082        -3.5189849587 
H       -3.0298751204        -2.3828463568        -1.7650223166 
O       -2.8094886925        -0.5404429495        -2.6373400391 
H       -1.6651806958        -2.2752558911        -2.9328962861 
H       -2.8687403318        -0.1519409641        -3.5591678955 
H       -1.1068448332        -4.7119274418        -0.6039320489 
C       -2.1447973906        -5.0157307355        -0.3982373914 
O       -2.2511528299        -6.4467403834        -0.3083758019 
H       -2.8061486733        -4.6366102247        -1.1900207215 
H       -2.4715392578        -4.6043369761         0.5639419206 
H       -2.3104044692        -6.8352423688        -1.2302036583 
C       -1.5864615280        -1.9714525974         1.9307268458 
H       -2.2478128107        -2.3505731082         1.1389435156 
H       -1.9132033952        -2.3828463568         2.8929061577 
O       -1.6928169673        -0.5404429495         2.0205884352 
H       -0.5485089706        -2.2752558911         1.7250321882 
H       -1.7520686066        -0.1519409641         1.0987605788 
H       -4.4558042753        -1.7556100462         2.1260952467 
C       -5.1288555117        -1.6724164373         1.2566222255 
H       -5.6062026988        -2.6468115212         1.0908125137 
O       -4.4294381881        -1.3368946347         0.0552997261 
H       -5.9113061961        -0.9324117656         1.4933087036 
H       -3.9182394983        -0.5129705219         0.2026004320 
C       -2.1447973906         1.9714525974        -0.3982373914 
O       -2.2511528299         0.5404429495        -0.3083758019 
H       -1.1068448332         2.2752558911        -0.6039320489 
H       -2.8061486733         2.3505731082        -1.1900207215 
H       -2.4715392578         2.3828463568         0.5639419206 
H       -2.3104044692         0.1519409641        -1.2302036583 
H       -4.4765753609         0.5129705219        -2.1263638052 
O       -4.9877740508         1.3368946347        -2.2736645110 
C       -5.6871913744         1.6724164373        -1.0723420117 
H       -6.4696420587         0.9324117656        -0.8356555336 
H       -6.1645385614         2.6468115212        -1.2381517234 
H       -5.0141401379         1.7556100462        -0.2028689905 
C       -1.0281256654         1.9714525974         4.2596910830 
O       -1.1344811046         0.5404429495         4.3495526724 
H        0.0098268920         2.2752558911         4.0539964254 
H       -1.6894769481         2.3505731082         3.4679077528 
H       -1.3548675326         2.3828463568         5.2218703949 
H       -1.1937327440         0.1519409641         3.4277248160 
H       -2.2478128107         4.6366102247         1.1389435156 
C       -1.5864615280         5.0157307355         1.9307268458 
H       -1.9132033952         4.6043369761         2.8929061577 
O       -1.6928169673         6.4467403834         2.0205884352 
H       -0.5485089706         4.7119274418         1.7250321882 
H       -1.7520686066         6.8352423688         1.0987605788 
O       -3.8711023255         1.3368946347         2.3842639633 
H       -3.3599036357         0.5129705219         2.5315646692 
C       -4.5705196491         1.6724164373         3.5855864626 
H       -5.3529703335         0.9324117656         3.8222729407 
H       -5.0478668362         2.6468115212         3.4197767509 
H       -3.8974684127         1.7556100462         4.4550594838 
C        4.1582982621        -1.5221390691        -0.3982373914 
O        4.0519428228        -2.9531487170        -0.3083758019 
H        5.1962508194        -1.2183357753        -0.6039320489 
H        3.8315563948        -1.1107453097         0.5639419206 
H        3.4969469793        -1.1430185582        -1.1900207215 
H        3.9926911834        -3.3416507023        -1.2302036583 
H        2.7148846696        -1.1107453097        -4.0939865538 
C        3.0416265369        -1.5221390691        -5.0561658657 
O        2.9352710976        -2.9531487170        -4.9663042762 
H        4.0795790942        -1.2183357753        -5.2618605232 
H        2.3802752541        -1.1430185582        -5.8479491958 
H        2.8760194582        -3.3416507023        -5.8881321326 
H        1.2889555147        -1.7379816202        -0.2028689905 
C        0.6159042783        -1.8211752292        -1.0723420117 
H       -0.1665464061        -2.5611799009        -0.8356555336 
O        1.3153216019        -2.1566970318        -2.2736645110 
H        0.1385570913        -0.8467801453        -1.2381517234 
H        1.8265202918        -2.9806211445        -2.1263638052 
C        1.7325760035        -1.8211752292         3.5855864626 
H        2.4056272399        -1.7379816202         4.4550594838 
H        0.9501253191        -2.5611799009         3.8222729407 
O        2.4319933271        -2.1566970318         2.3842639633 
H        1.2552288165        -0.8467801453         3.4197767509 
H        2.9431920170        -2.9806211445         2.5315646692 
H        0.3917894565        -4.4260034320         1.4933087036 
C        1.1742401409        -5.1660081037         1.2566222255 
O        1.8736574645        -4.8304863011         0.0552997261 
H        0.6968929539        -6.1404031876         1.0908125137 
H        1.8472913773        -5.2492017127         2.1260952467 
H        2.3848561544        -4.0065621884         0.2026004320 
C        3.5999623995         1.5221390691        -2.7272016285 
H        4.6379149568         1.2183357753        -2.9328962861 
H        3.2732205322         1.1107453097        -1.7650223166 
H        2.9386111167         1.1430185582        -3.5189849587 
O        3.4936069602         2.9531487170        -2.6373400391 
H        3.4343553208         3.3416507023        -3.5591678955 
H        0.7306196521         1.7379816202        -2.5318332276 
C        0.0575684157         1.8211752292        -3.4013062488 
O        0.7569857393         2.1566970318        -4.6026287482 
H       -0.4197787713         0.8467801453        -3.5671159606 
H       -0.7248822687         2.5611799009        -3.1646197707 
H        1.2681844292         2.9806211445        -4.4553280423 
H       -0.1665464061         4.4260034320        -0.8356555336 
C        0.6159042783         5.1660081037        -1.0723420117 
H        1.2889555147         5.2492017127        -0.2028689905 
O        1.3153216019         4.8304863011        -2.2736645110 
H        0.1385570913         6.1404031876        -1.2381517234 
H        1.8265202918         4.0065621884        -2.1263638052 
H        0.1722837895        -1.7379816202        -4.8607974648 
C       -0.5007674469        -1.8211752292        -5.7302704860 
H       -1.2832181313        -2.5611799009        -5.4935840079 
O        0.1986498767        -2.1566970318        -6.9315929853 
H       -0.9781146339        -0.8467801453        -5.8960801977 
H        0.7098485665        -2.9806211445        -6.7842922795 
