         114

C        1.6326460383         0.0103407223         0.2943074251 
H        1.6935209210        -1.0437326968         0.6144766934 
H        2.4008874806         0.1885598405        -0.4792198745 
H        0.6429929682         0.1803271481        -0.1502274618 
O        1.7690361379         0.9137445826         1.3954830665 
H        2.6076785996         0.6914765341         1.8628091373 
H        1.6935209210         3.3084953291         0.6144766934 
C        1.6326460383         4.3625687482         0.2943074251 
H        2.4008874806         4.5407878664        -0.4792198745 
H        0.6429929682         4.5325551740        -0.1502274618 
O        1.7690361379         5.2659726085         1.3954830665 
H        2.6076785996         5.0437045600         1.8628091373 
H        4.0660167932         2.3646738535         0.4792198745 
C        4.8342582355         2.1864547353        -0.2943074251 
H        5.8239113056         2.3564411611         0.1502274618 
O        4.6978681359         3.0898585956        -1.3954830665 
H        4.7733833528         1.1323813162        -0.6144766934 
H        3.8592256742         2.8675905471        -1.8628091373 
H        1.2636217548         2.2895135264         3.6453083683 
C        1.8039331839         2.4944704979         4.5797344275 
O        3.2289844473         2.5246561792         4.3435711001 
H        1.5016063402         3.4722538551         4.9671414208 
H        1.5519884710         1.7322714147         5.3291606585 
H        3.4974106639         1.6661514835         3.8812316934 
O        3.9325739374         0.3485421662         3.0582657616 
H        3.6641477208        -0.5099625295         3.5206051683 
C        5.3576252008         0.3183564849         2.8221024342 
H        5.6095699137        -0.4438425982         2.0726762031 
H        5.8979366299         0.1133995135         3.7565284933 
H        5.6599520445         1.2961398421         2.4346954408 
C       -1.6326460383        -2.1657732906        -0.2943074251 
H       -0.6429929682        -1.9957868648         0.1502274618 
O       -1.7690361379        -1.2623694303        -1.3954830665 
H       -2.4008874806        -1.9875541724         0.4792198745 
H       -1.6935209210        -3.2198467097        -0.6144766934 
H       -2.6076785996        -1.4846374788        -1.8628091373 
H       -3.4974106639        -0.5099625295        -3.8812316934 
O       -3.2289844473         0.3485421662        -4.3435711001 
C       -1.8039331839         0.3183564849        -4.5797344275 
H       -1.5519884710        -0.4438425982        -5.3291606585 
H       -1.2636217548         0.1133995135        -3.6453083683 
H       -1.5016063402         1.2961398421        -4.9671414208 
H       -4.7733833528        -1.0437326968         0.6144766934 
C       -4.8342582355         0.0103407223         0.2943074251 
H       -4.0660167932         0.1885598405        -0.4792198745 
H       -5.8239113056         0.1803271481        -0.1502274618 
O       -4.6978681359         0.9137445826         1.3954830665 
H       -3.8592256742         0.6914765341         1.8628091373 
H       -0.8069522293        -3.0560881838         2.4346954408 
C       -1.1092790730        -4.0338715410         2.8221024342 
H       -0.8573343601        -4.7960706241         2.0726762031 
H       -0.5689676439        -4.2388285124         3.7565284933 
O       -2.5343303364        -4.0036858597         3.0582657616 
H       -2.8027565530        -4.8621905554         3.5206051683 
H       -0.8573343601        -0.4438425982         2.0726762031 
C       -1.1092790730         0.3183564849         2.8221024342 
H       -0.5689676439         0.1133995135         3.7565284933 
H       -0.8069522293         1.2961398421         2.4346954408 
O       -2.5343303364         0.3485421662         3.0582657616 
H       -2.8027565530        -0.5099625295         3.5206051683 
C       -1.6326460383         2.1864547353        -0.2943074251 
H       -0.6429929682         2.3564411611         0.1502274618 
O       -1.7690361379         3.0898585956        -1.3954830665 
H       -2.4008874806         2.3646738535         0.4792198745 
H       -1.6935209210         1.1323813162        -0.6144766934 
H       -2.6076785996         2.8675905471        -1.8628091373 
H       -0.8573343601         3.9083854277         2.0726762031 
C       -1.1092790730         4.6705845108         2.8221024342 
H       -0.5689676439         4.4656275394         3.7565284933 
H       -0.8069522293         5.6483678680         2.4346954408 
O       -2.5343303364         4.7007701921         3.0582657616 
H       -2.8027565530         3.8422654964         3.5206051683 
H       -2.9694936099         1.6661514835         3.8812316934 
O       -3.2379198265         2.5246561792         4.3435711001 
C       -4.6629710899         2.4944704979         4.5797344275 
H       -4.9652979336         3.4722538551         4.9671414208 
H       -5.2032825190         2.2895135264         3.6453083683 
H       -4.9149158028         1.7322714147         5.3291606585 
H        0.6429929682        -4.1719008778        -0.1502274618 
C        1.6326460383        -4.3418873036         0.2943074251 
H        1.6935209210        -5.3959607227         0.6144766934 
H        2.4008874806        -4.1636681854        -0.4792198745 
O        1.7690361379        -3.4384834433         1.3954830665 
H        2.6076785996        -3.6607514918         1.8628091373 
O        4.6978681359        -1.2623694303        -1.3954830665 
C        4.8342582355        -2.1657732906        -0.2943074251 
H        3.8592256742        -1.4846374788        -1.8628091373 
H        5.8239113056        -1.9957868648         0.1502274618 
H        4.0660167932        -1.9875541724         0.4792198745 
H        4.7733833528        -3.2198467097        -0.6144766934 
H        0.8069522293        -0.8799741708        -2.4346954408 
C        1.1092790730        -1.8577575280        -2.8221024342 
O        2.5343303364        -1.8275718467        -3.0582657616 
H        0.5689676439        -2.0627144995        -3.7565284933 
H        0.8573343601        -2.6199566112        -2.0726762031 
H        2.8027565530        -2.6860765424        -3.5206051683 
H        2.9694936099        -0.5099625295        -3.8812316934 
O        3.2379198265         0.3485421662        -4.3435711001 
C        4.6629710899         0.3183564849        -4.5797344275 
H        4.9149158028        -0.4438425982        -5.3291606585 
H        5.2032825190         0.1133995135        -3.6453083683 
H        4.9652979336         1.2961398421        -4.9671414208 
H        1.5016063402        -0.8799741708         4.9671414208 
C        1.8039331839        -1.8577575280         4.5797344275 
O        3.2289844473        -1.8275718467         4.3435711001 
H        1.2636217548        -2.0627144995         3.6453083683 
H        1.5519884710        -2.6199566112         5.3291606585 
H        3.4974106639        -2.6860765424         3.8812316934 
H        0.8069522293         3.4722538551        -2.4346954408 
C        1.1092790730         2.4944704979        -2.8221024342 
O        2.5343303364         2.5246561792        -3.0582657616 
H        0.5689676439         2.2895135264        -3.7565284933 
H        0.8573343601         1.7322714147        -2.0726762031 
H        2.8027565530         1.6661514835        -3.5206051683 
