         132

C        4.3671463017         1.5877494892         1.2157202995 
O        5.3678045121         1.0829703464         2.1176615303 
H        4.6850552108         1.3546279420         0.1925268001 
H        4.2755405672         2.6790572650         1.3162035022 
H        3.3826590205         1.1261372297         1.3976561505 
H        5.0561703753         1.2448075901         3.0613412616 
H       -0.0846249064         1.3546279420         0.1925268001 
C       -0.4025338155         1.5877494892         1.2157202995 
O        0.5981243949         1.0829703464         2.1176615303 
H       -0.4941395500         2.6790572650         1.3162035022 
H       -1.3870210967         1.1261372297         1.3976561505 
H        0.2864902581         1.2448075901         3.0613412616 
H        2.0758593830         4.7239376901         1.0569256996 
C        1.7805904473         4.4811895085         2.0899377976 
O        0.4048422337         4.8165698371         2.3270631498 
H        1.8909301085         3.4005524812         2.2405523591 
H        2.4533943155         5.0071941227         2.7847940977 
H        0.2745130834         5.8012696356         2.1491033391 
H        2.5483327770         1.0050663490         4.2071830473 
C        3.2211366452         1.5310709632         4.9020393474 
H        2.9258677095         1.2883227816         5.9350514454 
H        3.1107969840         2.6117079905         4.7514247859 
O        4.5968848589         1.1956906346         4.6649139952 
H        4.7272140091         0.2109908361         4.8428738059 
C       -4.3671463017        -1.5877494892        -1.2157202995 
O       -5.3678045121        -1.0829703464        -2.1176615303 
H       -4.6850552108        -1.3546279420        -0.1925268001 
H       -3.3826590205        -1.1261372297        -1.3976561505 
H       -4.2755405672        -2.6790572650        -1.3162035022 
H       -5.0561703753        -1.2448075901        -3.0613412616 
H        0.0846249064        -1.3546279420        -0.1925268001 
C        0.4025338155        -1.5877494892        -1.2157202995 
O       -0.5981243949        -1.0829703464        -2.1176615303 
H        1.3870210967        -1.1261372297        -1.3976561505 
H        0.4941395500        -2.6790572650        -1.3162035022 
H       -0.2864902581        -1.2448075901        -3.0613412616 
H       -2.0758593830        -4.7239376901        -1.0569256996 
C       -1.7805904473        -4.4811895085        -2.0899377976 
H       -2.4533943155        -5.0071941227        -2.7847940977 
H       -1.8909301085        -3.4005524812        -2.2405523591 
O       -0.4048422337        -4.8165698371        -2.3270631498 
H       -0.2745130834        -5.8012696356        -2.1491033391 
H       -2.5483327770        -1.0050663490        -4.2071830473 
C       -3.2211366452        -1.5310709632        -4.9020393474 
O       -4.5968848589        -1.1956906346        -4.6649139952 
H       -3.1107969840        -2.6117079905        -4.7514247859 
H       -2.9258677095        -1.2883227816        -5.9350514454 
H       -4.7272140091        -0.2109908361        -4.8428738059 
C        0.1995693386        -4.7496994097         1.2157202995 
O        1.2002275489        -5.2544785524         2.1176615303 
H        0.5174782477        -4.9828209568         0.1925268001 
H        0.1079636041        -3.6583916339         1.3162035022 
H       -0.7849179426        -5.2113116692         1.3976561505 
H        0.8885934122        -5.0926413088         3.0613412616 
O        0.2360257345        -1.4081587736         4.8743156147 
C        1.2366839449        -1.9129379163         5.7762568454 
H        0.5476598713        -1.5699960172         3.9306358834 
H        0.9187750358        -1.6798163692         6.7994503449 
H        2.2211712261        -1.4513256568         5.5943209945 
H        1.3282896794        -3.0042456921         5.6757736428 
H       -2.0917175801        -1.6135112088         1.0569256996 
C       -2.3869865158        -1.8562593903         2.0899377976 
O       -3.7627347295        -1.5208790618         2.3270631498 
H       -2.2766468546        -2.9368964177         2.2405523591 
H       -1.7141826476        -1.3302547762         2.7847940977 
H       -3.8930638797        -0.5361792633         2.1491033391 
H       -0.5174782477         4.9828209568        -0.1925268001 
C       -0.1995693386         4.7496994097        -1.2157202995 
O       -1.2002275489         5.2544785524        -2.1176615303 
H        0.7849179426         5.2113116692        -1.3976561505 
H       -0.1079636041         3.6583916339        -1.3162035022 
H       -0.8885934122         5.0926413088        -3.0613412616 
H       -2.6779625371         1.6135112088        -1.0569256996 
C       -2.3826936014         1.8562593903        -2.0899377976 
H       -3.0554974696         1.3302547762        -2.7847940977 
H       -2.4930332626         2.9368964177        -2.2405523591 
O       -1.0069453877         1.5208790618        -2.3270631498 
H       -0.8766162375         0.5361792633        -2.1491033391 
H       -4.8543050236         1.3546279420         0.1925268001 
C       -5.1722139327         1.5877494892         1.2157202995 
O       -4.1715557223         1.0829703464         2.1176615303 
H       -5.2638196672         2.6790572650         1.3162035022 
H       -6.1567012139         1.1261372297         1.3976561505 
H       -4.4831898591         1.2448075901         3.0613412616 
H       -2.8787500087         3.4005524812         2.2405523591 
C       -2.9890896699         4.4811895085         2.0899377976 
O       -4.3648378835         4.8165698371         2.3270631498 
H       -2.3162858017         5.0071941227         2.7847940977 
H       -2.6938207342         4.7239376901         1.0569256996 
H       -4.4951670338         5.8012696356         2.1491033391 
H       -2.2213473402         1.0050663490         4.2071830473 
C       -1.5485434720         1.5310709632         4.9020393474 
H       -1.8438124077         1.2883227816         5.9350514454 
H       -1.6588831332         2.6117079905         4.7514247859 
O       -0.1727952583         1.1956906346         4.6649139952 
H       -0.0424661081         0.2109908361         4.8428738059 
H        4.8543050236        -1.3546279420        -0.1925268001 
C        5.1722139327        -1.5877494892        -1.2157202995 
O        4.1715557223        -1.0829703464        -2.1176615303 
H        6.1567012139        -1.1261372297        -1.3976561505 
H        5.2638196672        -2.6790572650        -1.3162035022 
H        4.4831898591        -1.2448075901        -3.0613412616 
H        2.8787500087        -3.4005524812        -2.2405523591 
C        2.9890896699        -4.4811895085        -2.0899377976 
H        2.6938207342        -4.7239376901        -1.0569256996 
H        2.3162858017        -5.0071941227        -2.7847940977 
O        4.3648378835        -4.8165698371        -2.3270631498 
H        4.4951670338        -5.8012696356        -2.1491033391 
H        2.2213473402        -1.0050663490        -4.2071830473 
C        1.5485434720        -1.5310709632        -4.9020393474 
O        0.1727952583        -1.1956906346        -4.6649139952 
H        1.6588831332        -2.6117079905        -4.7514247859 
H        1.8438124077        -1.2883227816        -5.9350514454 
H        0.0424661081        -0.2109908361        -4.8428738059 
H        2.6779625371        -1.6135112088         1.0569256996 
C        2.3826936014        -1.8562593903         2.0899377976 
O        1.0069453877        -1.5208790618         2.3270631498 
H        2.4930332626        -2.9368964177         2.2405523591 
H        3.0554974696        -1.3302547762         2.7847940977 
H        0.8766162375        -0.5361792633         2.1491033391 
O       -0.2360257345         1.4081587736        -4.8743156147 
H       -0.5476598713         1.5699960172        -3.9306358834 
C       -1.2366839449         1.9129379163        -5.7762568454 
H       -0.9187750358         1.6798163692        -6.7994503449 
H       -1.3282896794         3.0042456921        -5.6757736428 
H       -2.2211712261         1.4513256568        -5.5943209945 
H        2.0917175801         1.6135112088        -1.0569256996 
C        2.3869865158         1.8562593903        -2.0899377976 
H        1.7141826476         1.3302547762        -2.7847940977 
H        2.2766468546         2.9368964177        -2.2405523591 
O        3.7627347295         1.5208790618        -2.3270631498 
H        3.8930638797         0.5361792633        -2.1491033391 
