         108

C        0.9237802281         1.0884671081         4.0145965655 
H       -0.0497541134         1.4697094349         4.3676742625 
H        1.3030075109         1.7546085877         3.2260709183 
H        0.7783915852         0.0888800633         3.5848570008 
O        1.8514878909         0.9939512520         5.1018070597 
H        2.3979015537         1.8453358032         5.1421164850 
C        1.5712014510         3.2561805707         0.5927187291 
H        1.9504287338         2.5900390911        -0.1958069180 
H        0.5976671094         2.8749382439         0.9457964261 
H        1.4258128081         4.2557676155         0.1629791645 
O        2.4989091138         3.3506964268         1.6799292234 
H        3.0453227766         2.4993118756         1.7202386486 
O        3.9471737268         1.1783725874         1.7419486130 
H        3.4007600640         0.3269880362         1.7016391877 
C        4.8748813897         1.0838567313         2.8291591072 
H        5.8484157312         0.7026144045         2.4760814102 
H        4.4956541069         0.4177152517         3.6176847544 
H        5.0202700325         2.0834437761         3.2588986719 
C       -1.5712014510        -3.2561805707        -0.5927187291 
H       -1.9504287338        -2.5900390911         0.1958069180 
O       -2.4989091138        -3.3506964268        -1.6799292234 
H       -0.5976671094        -2.8749382439        -0.9457964261 
H       -1.4258128081        -4.2557676155        -0.1629791645 
H       -3.0453227766        -2.4993118756        -1.7202386486 
C       -0.9237802281        -1.0884671081        -4.0145965655 
O       -1.8514878909        -0.9939512520        -5.1018070597 
H        0.0497541134        -1.4697094349        -4.3676742625 
H       -1.3030075109        -1.7546085877        -3.2260709183 
H       -0.7783915852        -0.0888800633        -3.5848570008 
H       -2.3979015537        -1.8453358032        -5.1421164850 
O       -3.9471737268        -1.1783725874        -1.7419486130 
C       -4.8748813897        -1.0838567313        -2.8291591072 
H       -3.4007600640        -0.3269880362        -1.7016391877 
H       -5.8484157312        -0.7026144045        -2.4760814102 
H       -4.4956541069        -0.4177152517        -3.6176847544 
H       -5.0202700325        -2.0834437761        -3.2588986719 
C       -2.2186226738        -1.0884671081         2.8291591072 
O       -3.1463303367        -0.9939512520         1.7419486130 
H       -1.2450883323        -1.4697094349         2.4760814102 
H       -2.5978499566        -1.7546085877         3.6176847544 
H       -2.0732340310        -0.0888800633         3.2588986719 
H       -3.6927439995        -1.8453358032         1.7016391877 
C       -1.5712014510         1.0884671081        -0.5927187291 
H       -1.9504287338         1.7546085877         0.1958069180 
O       -2.4989091138         0.9939512520        -1.6799292234 
H       -0.5976671094         1.4697094349        -0.9457964261 
H       -1.4258128081         0.0888800633        -0.1629791645 
H       -3.0453227766         1.8453358032        -1.7202386486 
C       -0.9237802281         3.2561805707        -4.0145965655 
O       -1.8514878909         3.3506964268        -5.1018070597 
H        0.0497541134         2.8749382439        -4.3676742625 
H       -1.3030075109         2.5900390911        -3.2260709183 
H       -0.7783915852         4.2557676155        -3.5848570008 
H       -2.3979015537         2.4993118756        -5.1421164850 
H       -5.1430753297         0.4177152517        -0.1958069180 
C       -5.5223026125         1.0838567313         0.5927187291 
H       -6.4958369541         0.7026144045         0.9457964261 
H       -5.6676912554         2.0834437761         0.1629791645 
O       -4.5945949497         1.1783725874         1.6799292234 
H       -4.0481812869         0.3269880362         1.7202386486 
C       -2.2186226738         3.2561805707         2.8291591072 
O       -3.1463303367         3.3506964268         1.7419486130 
H       -1.2450883323         2.8749382439         2.4760814102 
H       -2.5978499566         2.5900390911         3.6176847544 
H       -2.0732340310         4.2557676155         3.2588986719 
H       -3.6927439995         2.4993118756         1.7016391877 
H       -1.4258128081         4.4335277421        -0.1629791645 
C       -1.5712014510         5.4331147869        -0.5927187291 
H       -1.9504287338         6.0992562665         0.1958069180 
O       -2.4989091138         5.3385989308        -1.6799292234 
H       -0.5976671094         5.8143571137        -0.9457964261 
H       -3.0453227766         6.1899834820        -1.7202386486 
C        2.2186226738        -3.2561805707        -2.8291591072 
H        1.2450883323        -2.8749382439        -2.4760814102 
H        2.5978499566        -2.5900390911        -3.6176847544 
H        2.0732340310        -4.2557676155        -3.2588986719 
O        3.1463303367        -3.3506964268        -1.7419486130 
H        3.6927439995        -2.4993118756        -1.7016391877 
H        1.9504287338        -1.7546085877        -0.1958069180 
C        1.5712014510        -1.0884671081         0.5927187291 
H        0.5976671094        -1.4697094349         0.9457964261 
H        1.4258128081        -0.0888800633         0.1629791645 
O        2.4989091138        -0.9939512520         1.6799292234 
H        3.0453227766        -1.8453358032         1.7202386486 
O        4.5945949497        -1.1783725874        -1.6799292234 
H        4.0481812869        -0.3269880362        -1.7202386486 
C        5.5223026125        -1.0838567313        -0.5927187291 
H        5.1430753297        -0.4177152517         0.1958069180 
H        6.4958369541        -0.7026144045        -0.9457964261 
H        5.6676912554        -2.0834437761        -0.1629791645 
C        0.9237802281        -3.2561805707         4.0145965655 
H       -0.0497541134        -2.8749382439         4.3676742625 
H        1.3030075109        -2.5900390911         3.2260709183 
H        0.7783915852        -4.2557676155         3.5848570008 
O        1.8514878909        -3.3506964268         5.1018070597 
H        2.3979015537        -2.4993118756         5.1421164850 
C        2.2186226738         1.0884671081        -2.8291591072 
H        1.2450883323         1.4697094349        -2.4760814102 
H        2.5978499566         1.7546085877        -3.6176847544 
H        2.0732340310         0.0888800633        -3.2588986719 
O        3.1463303367         0.9939512520        -1.7419486130 
H        3.6927439995         1.8453358032        -1.7016391877 
H        1.4258128081        -4.4335277421         0.1629791645 
C        1.5712014510        -5.4331147869         0.5927187291 
H        1.9504287338        -6.0992562665        -0.1958069180 
H        0.5976671094        -5.8143571137         0.9457964261 
O        2.4989091138        -5.3385989308         1.6799292234 
H        3.0453227766        -6.1899834820         1.7202386486 
