         120

C        0.2987820005         1.3521902235         1.7624530954 
H        1.2200453790         0.9432907856         2.1996678250 
O        0.4084489943         2.7802799130         1.6261993763 
H       -0.5622041286         1.0797888951         2.3911289718 
H        0.1635197540         0.9354997408         0.7580369395 
H        0.7491061051         3.1671828457         2.4853914995 
H       -0.4999551697         3.4763135865         0.4392059027 
O       -0.8406122805         3.8632165193        -0.4199862205 
C       -0.9502792743         5.2913062088        -0.2837325014 
H       -0.0290158958         5.7002056466         0.1534822282 
H       -1.8112654034         5.5637075372         0.3449433750 
H       -1.0855415208         5.7079966915        -1.2881486573 
H        3.1207075326         1.7235685168         0.5860665237 
C        3.9843306606         1.8433293349         1.2636140797 
O        3.5853494073         1.9519921324         2.6331566406 
H        4.5668783805         2.7186108854         0.9346973891 
H        4.6194799430         0.9511638936         1.1830738614 
H        3.0524652111         2.7696678336         2.7368017706 
H       -1.6172424398         3.9248855469         2.9808829859 
C       -2.1997901598         4.8001670974         3.3097996765 
O       -2.5987714130         4.6915042999         4.6793422374 
H       -1.5646408774         5.6923325386         3.2292594583 
H       -3.0634132877         4.9199279154         2.6322521205 
H       -3.1316556092         3.8738285986         4.7829873674 
O        2.3362881325         4.6915042999         0.5869710437 
H        1.8034039363         3.8738285986         0.6906161738 
C        2.7352693858         4.8001670974        -0.7825715172 
H        3.3704186682         5.6923325386        -0.8631117354 
H        1.8716462578         4.9199279154        -1.4601190731 
H        3.3178171057         3.9248855469        -1.1114882077 
C       -4.6668703219        -1.3521902235        -0.2837325014 
H       -3.7456069433        -0.9432907856         0.1534822282 
H       -5.5278564510        -1.0797888951         0.3449433750 
H       -4.8021325683        -0.9354997408        -1.2881486573 
O       -4.5572033281        -2.7802799130        -0.4199862205 
H       -4.2165462172        -3.1671828457         0.4392059027 
H        1.1894526022        -0.9432907856        -3.9388889654 
C        0.2681892236        -1.3521902235        -4.3761036950 
H       -0.5927969055        -1.0797888951        -3.7474278187 
H        0.1329269772        -0.9354997408        -5.3805198509 
O        0.3778562174        -2.7802799130        -4.5123574142 
H        0.7185133283        -3.1671828457        -3.6531652909 
O        1.6269174922        -3.8632165193        -2.4661718173 
H        1.9675746031        -3.4763135865        -1.6069796941 
C        1.5172504984        -5.2913062088        -2.3299180982 
H        0.6562643693        -5.5637075372        -1.7012422218 
H        2.4385138770        -5.7002056466        -1.8927033686 
H        1.3819882520        -5.7079966915        -3.3343342541 
H       -1.8449447898        -1.7235685168        -1.4601190731 
C       -0.9813216618        -1.8433293349        -0.7825715172 
H       -0.3461723794        -0.9511638936        -0.8631117354 
H       -0.3987739419        -2.7186108854        -1.1114882077 
O       -1.3803029150        -1.9519921324         0.5869710437 
H       -1.9131871112        -2.7696678336         0.6906161738 
H       -3.1622483860        -3.8738285986        -1.3555694230 
O       -2.6293641898        -4.6915042999        -1.4592145531 
C       -2.2303829366        -4.8001670974        -2.8287571140 
H       -1.6478352167        -3.9248855469        -3.1576738045 
H       -1.5952336542        -5.6923325386        -2.9092973322 
H       -3.0940060645        -4.9199279154        -3.5063046699 
C       -2.1993405491         1.3521902235        -2.3299180982 
H       -1.2780771706         0.9432907856        -1.8927033686 
O       -2.0896735553         2.7802799130        -2.4661718173 
H       -3.0603266782         1.0797888951        -1.7012422218 
H       -2.3346027956         0.9354997408        -3.3343342541 
H       -1.7490164445         3.1671828457        -1.6069796941 
H        0.6225849830         1.7235685168        -3.5063046699 
C        1.4862081110         1.8433293349        -2.8287571140 
O        1.0872268577         1.9519921324        -1.4592145531 
H        2.0687558309         2.7186108854        -3.1576738045 
H        2.1213573934         0.9511638936        -2.9092973322 
H        0.5543426615         2.7696678336        -1.3555694230 
H       -0.6947186133         3.8738285986        -3.4017550198 
O       -0.1618344171         4.6915042999        -3.5054001499 
C        0.2371468362         4.8001670974        -4.8749427108 
H        0.8722961186         5.6923325386        -4.9554829290 
H       -0.6264762918         4.9199279154        -5.5524902667 
H        0.8196945561         3.9248855469        -5.2038594014 
H       -4.3124745625         1.7235685168         0.5860665237 
C       -3.4488514345         1.8433293349         1.2636140797 
O       -3.8478326878         1.9519921324         2.6331566406 
H       -2.8663037146         2.7186108854         0.9346973891 
H       -2.8137021521         0.9511638936         1.1830738614 
H       -4.3807168840         2.7696678336         2.7368017706 
C        2.7663117732        -1.3521902235        -0.2837325014 
H        3.6875751518        -0.9432907856         0.1534822282 
H        1.9053256441        -1.0797888951         0.3449433750 
H        2.6310495268        -0.9354997408        -1.2881486573 
O        2.8759787670        -2.7802799130        -0.4199862205 
H        3.2166358779        -3.1671828457         0.4392059027 
C       -2.1687477723        -1.3521902235         3.8086386922 
H       -1.2474843937        -0.9432907856         4.2458534219 
H       -3.0297339014        -1.0797888951         4.4373145686 
H       -2.3040100187        -0.9354997408         2.8042225363 
O       -2.0590807785        -2.7802799130         3.6723849731 
H       -1.7184236676        -3.1671828457         4.5315770963 
H       -2.9674849424        -3.4763135865         2.4853914995 
O       -3.3081420533        -3.8632165193         1.6261993763 
C       -3.4178090471        -5.2913062088         1.7624530954 
H       -4.2787951762        -5.5637075372         2.3911289718 
H       -2.4965456685        -5.7002056466         2.1996678250 
H       -3.5530712935        -5.7079966915         0.7580369395 
H       -0.5958835150        -4.9199279154         0.5860665237 
C        0.2677396130        -4.8001670974         1.2636140797 
H        0.8502873329        -3.9248855469         0.9346973891 
H        0.9028888954        -5.6923325386         1.1830738614 
O       -0.1312416402        -4.6915042999         2.6331566406 
H       -0.6641258364        -3.8738285986         2.7368017706 
H        0.6531777598        -1.7235685168         2.6322521205 
C        1.5168008878        -1.8433293349         3.3097996765 
H        2.1519501702        -0.9511638936         3.2292594583 
H        2.0993486077        -2.7186108854         2.9808829859 
O        1.1178196346        -1.9519921324         4.6793422374 
H        0.5849354384        -2.7696678336         4.7829873674 
H        4.3728554169         1.0797888951        -1.7012422218 
C        5.2338415460         1.3521902235        -2.3299180982 
H        6.1551049245         0.9432907856        -1.8927033686 
O        5.3435085398         2.7802799130        -2.4661718173 
H        5.0985792995         0.9354997408        -3.3343342541 
H        5.6841656506         3.1671828457        -1.6069796941 
