         126

H        0.6472941540         0.0304627981         2.7071712017 
C        1.7141059213        -0.2185794521         2.7671448343 
H        2.2182884369         0.1445005978         1.8572461947 
O        2.2415178416         0.3949750600         3.9524751152 
H        1.8119738763        -1.3134314481         2.8194526903 
H        3.2117649083         0.1316178573         4.0421022343 
H        1.5062286389         1.8601491145         0.4191557752 
C        1.7722717662         2.9227526779         0.3577456602 
O        1.1661136362         3.4561676660        -0.8289975072 
H        1.4128648956         3.4311567197         1.2668501523 
H        2.8687048201         3.0038539330         0.3067371045 
H        1.4284315934         4.4269374663        -0.9168919633 
H        4.6026235371         0.2324684973         1.2668501523 
C        4.9620304077        -0.2759355445         0.3577456602 
O        4.3558722778         0.2574794436        -0.8289975072 
H        6.0584634616        -0.1948342894         0.3067371045 
H        4.6959872804        -1.3385391079         0.4191557752 
H        4.6181902350         1.2282492439        -0.9168919633 
H        1.8588264188         1.9704389785         4.1007386714 
O        1.5965084616         2.9412087788         4.1886331274 
C        2.2026665916         3.4746237669         5.3753762948 
H        1.8432597210         2.9662197251         6.2844807869 
H        1.9366234643         4.5372273303         5.4367864098 
H        3.2990996455         3.3935225118         5.3243677391 
C       -1.9060475457        -2.9801087703        -2.2504858003 
H       -2.9728593130        -3.2291510205        -2.3104594329 
H       -1.4018650301        -3.3431888202        -3.1603844399 
O       -1.3786356254        -3.5936632824        -1.0651555194 
H       -1.8081795907        -1.8852567743        -2.1981779443 
H       -0.4083885587        -3.3303060797        -0.9755284003 
O       -4.5683942670        -0.3949750600        -1.0651555194 
C       -5.0958061872         0.2185794521        -2.2504858003 
H       -3.5981472002        -0.1316178573        -0.9755284003 
H       -4.5916236716        -0.1445005978        -3.1603844399 
H       -6.1626179545        -0.0304627981        -2.3104594329 
H       -4.9979382322         1.3134314481        -2.1981779443 
H       -2.2072885714        -0.2324684973        -3.7507804823 
C       -1.8478817008         0.2759355445        -4.6598849744 
O       -2.4540398308        -0.2574794436        -5.8466281419 
H       -0.7514486469         0.1948342894        -4.7108935301 
H       -2.1139248281         1.3385391079        -4.5984748594 
H       -2.1917218736        -1.2282492439        -5.9345225979 
C       -1.4756527203        -3.4172676745         2.7671448343 
H       -2.5424644876        -3.1682254243         2.7071712017 
H       -1.3777847653        -4.5121196705         2.8194526903 
H       -0.9714702047        -3.0541876246         1.8572461947 
O       -0.9482408000        -2.8037131624         3.9524751152 
H        0.0220062667        -3.0670703651         4.0421022343 
H       -1.6835300027        -1.3385391079         0.4191557752 
C       -1.4174868754        -0.2759355445         0.3577456602 
H       -1.7768937460         0.2324684973         1.2668501523 
O       -2.0236450053         0.2574794436        -0.8289975072 
H       -0.3210538215        -0.1948342894         0.3067371045 
H       -1.7613270481         1.2282492439        -0.9168919633 
H       -3.5108124630        -3.3935225118         0.3067371045 
C       -4.6072455169        -3.4746237669         0.3577456602 
H       -4.8732886442        -4.5372273303         0.4191557752 
O       -5.2134036469        -2.9412087788        -0.8289975072 
H       -4.9666523875        -2.9662197251         1.2668501523 
H       -4.9510856897        -1.9704389785        -0.9168919633 
O       -1.5932501799        -0.2574794436         4.1886331274 
C       -0.9870920499         0.2759355445         5.3753762948 
H       -1.3309322227        -1.2282492439         4.1007386714 
H       -1.3464989205        -0.2324684973         6.2844807869 
H        0.1093410039         0.1948342894         5.3243677391 
H       -1.2531351772         1.3385391079         5.4367864098 
C       -1.9060475457         3.4172676745        -2.2504858003 
H       -2.9728593130         3.1682254243        -2.3104594329 
H       -1.4018650301         3.0541876246        -3.1603844399 
O       -1.3786356254         2.8037131624        -1.0651555194 
H       -1.8081795907         4.5121196705        -2.1981779443 
H       -0.4083885587         3.0670703651        -0.9755284003 
C       -1.4756527203         2.9801087703         2.7671448343 
H       -2.5424644876         3.2291510205         2.7071712017 
H       -1.3777847653         1.8852567743         2.8194526903 
H       -0.9714702047         3.3431888202         1.8572461947 
O       -0.9482408000         3.5936632824         3.9524751152 
H        0.0220062667         3.3303060797         4.0421022343 
H       -4.1612288462         0.1445005978         1.8572461947 
C       -4.6654113618        -0.2185794521         2.7671448343 
O       -4.1379994415         0.3949750600         3.9524751152 
H       -5.7322231291         0.0304627981         2.7071712017 
H       -4.5675434068        -1.3134314481         2.8194526903 
H       -3.1677523748         0.1316178573         4.0421022343 
H       -4.8732886442         1.8601491145         0.4191557752 
C       -4.6072455169         2.9227526779         0.3577456602 
O       -5.2134036469         3.4561676660        -0.8289975072 
H       -4.9666523875         3.4311567197         1.2668501523 
H       -3.5108124630         3.0038539330         0.3067371045 
H       -4.9510856897         4.4269374663        -0.9168919633 
H        0.2168993286        -0.0304627981        -2.3104594329 
C        1.2837110959         0.2185794521        -2.2504858003 
H        1.7878936115        -0.1445005978        -3.1603844399 
O        1.8111230161        -0.3949750600        -1.0651555194 
H        1.3815790509         1.3134314481        -2.1981779443 
H        2.7813700829        -0.1316178573        -0.9755284003 
H        3.4066579701        -3.2291510205        -2.3104594329 
C        4.4734697374        -2.9801087703        -2.2504858003 
H        4.9776522530        -3.3431888202        -3.1603844399 
O        5.0008816577        -3.5936632824        -1.0651555194 
H        4.5713376924        -1.8852567743        -2.1981779443 
H        5.9711287244        -3.3303060797        -0.9755284003 
H        1.0758338135        -1.8601491145        -4.5984748594 
C        1.3418769408        -2.9227526779        -4.6598849744 
O        0.7357188108        -3.4561676660        -5.8466281419 
H        0.9824700702        -3.4311567197        -3.7507804823 
H        2.4383099946        -3.0038539330        -4.7108935301 
H        0.9980367680        -4.4269374663        -5.9345225979 
O        1.1661136362        -2.9412087788        -0.8289975072 
C        1.7722717662        -3.4746237669         0.3577456602 
H        1.4284315934        -1.9704389785        -0.9168919633 
H        1.5062286389        -4.5372273303         0.4191557752 
H        1.4128648956        -2.9662197251         1.2668501523 
H        2.8687048201        -3.3935225118         0.3067371045 
H        3.4066579701         3.1682254243        -2.3104594329 
C        4.4734697374         3.4172676745        -2.2504858003 
H        4.9776522530         3.0541876246        -3.1603844399 
O        5.0008816577         2.8037131624        -1.0651555194 
H        4.5713376924         4.5121196705        -2.1981779443 
H        5.9711287244         3.0670703651        -0.9755284003 
H        0.9824700702         2.9662197251        -3.7507804823 
C        1.3418769408         3.4746237669        -4.6598849744 
O        0.7357188108         2.9412087788        -5.8466281419 
H        1.0758338135         4.5372273303        -4.5984748594 
H        2.4383099946         3.3935225118        -4.7108935301 
H        0.9980367680         1.9704389785        -5.9345225979 
