         144

C        0.1286717181         0.9351731319         1.9500850798 
O       -0.4973261402         1.4379512612         0.7718451968 
H       -0.6458092645         0.4350728650         2.5451411343 
H        0.9171486182         0.2037807371         1.7185743465 
H        0.5702110455         1.7446837340         2.5531165634 
H        0.1529612887         1.9932136502         0.2782937928 
H        2.9771589767         0.4350728650         2.5451411343 
C        3.7516399593         0.9351731319         1.9500850798 
O        3.1256421010         1.4379512612         0.7718451968 
H        4.5401168594         0.2037807371         1.7185743465 
H        4.1931792867         1.7446837340         2.5531165634 
H        3.7759295299         1.9932136502         0.2782937928 
C       -2.6877951093        -3.4942965231        -1.9500850798 
O       -2.1850169800        -4.1202943814        -0.7718451968 
H       -3.1878953762        -4.2687775057        -2.5451411343 
H       -3.4191875041        -2.7058196230        -1.7185743465 
H       -1.8782845072        -3.0527571957        -2.5531165634 
H       -1.6297545910        -3.4700069525        -0.2782937928 
H       -3.1878953762        -0.6458092645        -2.5451411343 
C       -2.6877951093         0.1286717181        -1.9500850798 
O       -2.1850169800        -0.4973261402        -0.7718451968 
H       -3.4191875041         0.9171486182        -1.7185743465 
H       -1.8782845072         0.5702110455        -2.5531165634 
H       -1.6297545910         0.1529612887        -0.2782937928 
H       -1.3764112556        -1.1656748561        -4.5239035696 
C       -0.8763109887        -1.9401558387        -5.1189596241 
H       -1.6077033835        -2.7286327388        -5.3504703574 
H       -0.0668003866        -2.3816951661        -4.5159281405 
O       -0.3735328594        -1.3141579804        -6.2971995071 
H        0.1817295296        -1.9644454093        -6.7907509111 
C       -3.4942965231        -2.6877951093         1.9500850798 
O       -4.1202943814        -2.1850169800         0.7718451968 
H       -4.2687775057        -3.1878953762         2.5451411343 
H       -2.7058196230        -3.4191875041         1.7185743465 
H       -3.0527571957        -1.8782845072         2.5531165634 
H       -3.4700069525        -1.6297545910         0.2782937928 
H       -1.1656748561        -1.3764112556         4.5239035696 
C       -1.9401558387        -0.8763109887         5.1189596241 
H       -2.3816951661        -0.0668003866         4.5159281405 
H       -2.7286327388        -1.6077033835         5.3504703574 
O       -1.3141579804        -0.3735328594         6.2971995071 
H       -1.9644454093         0.1817295296         6.7907509111 
H       -0.6458092645        -3.1878953762         2.5451411343 
C        0.1286717181        -2.6877951093         1.9500850798 
O       -0.4973261402        -2.1850169800         0.7718451968 
H        0.9171486182        -3.4191875041         1.7185743465 
H        0.5702110455        -1.8782845072         2.5531165634 
H        0.1529612887        -1.6297545910         0.2782937928 
H       -3.1878953762         2.9771589767        -2.5451411343 
C       -2.6877951093         3.7516399593        -1.9500850798 
O       -2.1850169800         3.1256421010        -0.7718451968 
H       -3.4191875041         4.5401168594        -1.7185743465 
H       -1.8782845072         4.1931792867        -2.5531165634 
H       -1.6297545910         3.7759295299        -0.2782937928 
H       -0.0668003866         1.2412730751        -4.5159281405 
C       -0.8763109887         1.6828124025        -5.1189596241 
H       -1.6077033835         0.8943355024        -5.3504703574 
O       -0.3735328594         2.3088102608        -6.2971995071 
H       -1.3764112556         2.4572933851        -4.5239035696 
H        0.1817295296         1.6585228319        -6.7907509111 
C       -3.4942965231         0.9351731319         1.9500850798 
O       -4.1202943814         1.4379512612         0.7718451968 
H       -4.2687775057         0.4350728650         2.5451411343 
H       -2.7058196230         0.2037807371         1.7185743465 
H       -3.0527571957         1.7446837340         2.5531165634 
H       -3.4700069525         1.9932136502         0.2782937928 
H       -1.1656748561         2.2465569856         4.5239035696 
C       -1.9401558387         2.7466572525         5.1189596241 
H       -2.3816951661         3.5561678546         4.5159281405 
H       -2.7286327388         2.0152648577         5.3504703574 
O       -1.3141579804         3.2494353818         6.2971995071 
H       -1.9644454093         3.8046977708         6.7907509111 
H       -0.6458092645         4.0580411062         2.5451411343 
C        0.1286717181         4.5581413731         1.9500850798 
O       -0.4973261402         5.0609195024         0.7718451968 
H        0.9171486182         3.8267489783         1.7185743465 
H        0.5702110455         5.3676519752         2.5531165634 
H        0.1529612887         5.6161818914         0.2782937928 
H       -2.7058196230         3.8267489783         1.7185743465 
C       -3.4942965231         4.5581413731         1.9500850798 
O       -4.1202943814         5.0609195024         0.7718451968 
H       -4.2687775057         4.0580411062         2.5451411343 
H       -3.0527571957         5.3676519752         2.5531165634 
H       -3.4700069525         5.6161818914         0.2782937928 
C        0.9351731319        -3.4942965231        -1.9500850798 
O        1.4379512612        -4.1202943814        -0.7718451968 
H        0.4350728650        -4.2687775057        -2.5451411343 
H        0.2037807371        -2.7058196230        -1.7185743465 
H        1.7446837340        -3.0527571957        -2.5531165634 
H        1.9932136502        -3.4700069525        -0.2782937928 
H        0.4350728650        -0.6458092645        -2.5451411343 
C        0.9351731319         0.1286717181        -1.9500850798 
O        1.4379512612        -0.4973261402        -0.7718451968 
H        0.2037807371         0.9171486182        -1.7185743465 
H        1.7446837340         0.5702110455        -2.5531165634 
H        1.9932136502         0.1529612887        -0.2782937928 
H        2.2465569856        -1.1656748561        -4.5239035696 
C        2.7466572525        -1.9401558387        -5.1189596241 
H        2.0152648577        -2.7286327388        -5.3504703574 
H        3.5561678546        -2.3816951661        -4.5159281405 
O        3.2494353818        -1.3141579804        -6.2971995071 
H        3.8046977708        -1.9644454093        -6.7907509111 
H        2.9771589767        -3.1878953762         2.5451411343 
C        3.7516399593        -2.6877951093         1.9500850798 
O        3.1256421010        -2.1850169800         0.7718451968 
H        4.5401168594        -3.4191875041         1.7185743465 
H        4.1931792867        -1.8782845072         2.5531165634 
H        3.7759295299        -1.6297545910         0.2782937928 
H        1.2412730751        -0.0668003866         4.5159281405 
C        1.6828124025        -0.8763109887         5.1189596241 
H        0.8943355024        -1.6077033835         5.3504703574 
H        2.4572933851        -1.3764112556         4.5239035696 
O        2.3088102608        -0.3735328594         6.2971995071 
H        1.6585228319         0.1817295296         6.7907509111 
H        0.4350728650         2.9771589767        -2.5451411343 
C        0.9351731319         3.7516399593        -1.9500850798 
O        1.4379512612         3.1256421010        -0.7718451968 
H        0.2037807371         4.5401168594        -1.7185743465 
H        1.7446837340         4.1931792867        -2.5531165634 
H        1.9932136502         3.7759295299        -0.2782937928 
H        4.0580411062        -0.6458092645        -2.5451411343 
C        4.5581413731         0.1286717181        -1.9500850798 
O        5.0609195024        -0.4973261402        -0.7718451968 
H        3.8267489783         0.9171486182        -1.7185743465 
H        5.3676519752         0.5702110455        -2.5531165634 
H        5.6161818914         0.1529612887        -0.2782937928 
H        3.8267489783        -2.7058196230        -1.7185743465 
C        4.5581413731        -3.4942965231        -1.9500850798 
O        5.0609195024        -4.1202943814        -0.7718451968 
H        4.0580411062        -4.2687775057        -2.5451411343 
H        5.3676519752        -3.0527571957        -2.5531165634 
H        5.6161818914        -3.4700069525        -0.2782937928 
H       -5.2527228322         0.1529612887        -0.2782937928 
O       -5.8079852212        -0.4973261402        -0.7718451968 
C       -6.3107633505         0.1286717181        -1.9500850798 
H       -6.8108636174        -0.6458092645        -2.5451411343 
H       -7.0421557453         0.9171486182        -1.7185743465 
H       -5.5012527484         0.5702110455        -2.5531165634 
H        0.1529612887        -5.2527228322         0.2782937928 
O       -0.4973261402        -5.8079852212         0.7718451968 
C        0.1286717181        -6.3107633505         1.9500850798 
H       -0.6458092645        -6.8108636174         2.5451411343 
H        0.9171486182        -7.0421557453         1.7185743465 
H        0.5702110455        -5.5012527484         2.5531165634 
