         126

C        1.5955709236         2.9113096893         3.1960554327 
H        1.8324464682         3.6490064107         3.9771722525 
H        0.9655553901         2.1221609608         3.6386328771 
H        1.0247444280         3.4172536139         2.4075222655 
O        2.7694593861         2.3735376703         2.5912185408 
H        3.2746027186         1.8776046271         3.2790146904 
H        1.8324464682         0.0262822023         0.3471082725 
C        1.5955709236        -0.7114145191        -0.4340085473 
H        0.9655553901        -1.5005632476         0.0085688971 
H        1.0247444280        -0.2054705945        -1.2225417145 
O        2.7694593861        -1.2491865381        -1.0388454392 
H        3.2746027186        -1.7451195813        -0.3510492896 
H        0.9655553901         2.1221609608         0.0085688971 
C        1.5955709236         2.9113096893        -0.4340085473 
H        1.8324464682         3.6490064107         0.3471082725 
H        1.0247444280         3.4172536139        -1.2225417145 
O        2.7694593861         2.3735376703        -1.0388454392 
H        3.2746027186         1.8776046271        -0.3510492896 
O        4.3332733552         0.5621755661         0.7761865508 
H        3.8281300227         0.0662425229         1.4639827004 
C        5.5071618177         1.0999475851         1.3810234427 
H        6.0779883133         1.6058915097         0.5924902755 
H        6.1371773512         0.3107988566         1.8236008871 
H        5.2702862731         1.8376443065         2.1621402625 
C       -1.5955709236        -2.9113096893        -2.2490405373 
O       -2.7694593861        -2.3735376703        -2.8538774292 
H       -1.8324464682        -3.6490064107        -1.4679237175 
H       -1.0247444280        -3.4172536139        -3.0375737045 
H       -0.9655553901        -2.1221609608        -1.8064630929 
H       -3.2746027186        -1.8776046271        -2.1660812796 
H       -1.8324464682        -0.0262822023        -1.4679237175 
C       -1.5955709236         0.7114145191        -2.2490405373 
O       -2.7694593861         1.2491865381        -2.8538774292 
H       -1.0247444280         0.2054705945        -3.0375737045 
H       -0.9655553901         1.5005632476        -1.8064630929 
H       -3.2746027186         1.7451195813        -2.1660812796 
O       -4.3332733552        -0.5621755661        -1.0388454392 
C       -5.5071618177        -1.0999475851        -0.4340085473 
H       -3.8281300227        -0.0662425229        -0.3510492896 
H       -5.2702862731        -1.8376443065         0.3471082725 
H       -6.1371773512        -0.3107988566         0.0085688971 
H       -6.0779883133        -1.6058915097        -1.2225417145 
C       -1.5955709236        -2.9113096893         1.3810234427 
O       -2.7694593861        -2.3735376703         0.7761865508 
H       -1.8324464682        -3.6490064107         2.1621402625 
H       -1.0247444280        -3.4172536139         0.5924902755 
H       -0.9655553901        -2.1221609608         1.8236008871 
H       -3.2746027186        -1.8776046271         1.4639827004 
H       -1.8324464682        -0.0262822023         2.1621402625 
C       -1.5955709236         0.7114145191         1.3810234427 
O       -2.7694593861         1.2491865381         0.7761865508 
H       -1.0247444280         0.2054705945         0.5924902755 
H       -0.9655553901         1.5005632476         1.8236008871 
H       -3.2746027186         1.7451195813         1.4639827004 
O       -4.3332733552        -0.5621755661         2.5912185408 
C       -5.5071618177        -1.0999475851         3.1960554327 
H       -3.8281300227        -0.0662425229         3.2790146904 
H       -5.2702862731        -1.8376443065         3.9771722525 
H       -6.1371773512        -0.3107988566         3.6386328771 
H       -6.0779883133        -1.6058915097         2.4075222655 
H       -1.8324464682         3.5964420061        -1.4679237175 
C       -1.5955709236         4.3341387275        -2.2490405373 
O       -2.7694593861         4.8719107465        -2.8538774292 
H       -1.0247444280         3.8281948029        -3.0375737045 
H       -0.9655553901         5.1232874560        -1.8064630929 
H       -3.2746027186         5.3678437897        -2.1660812796 
H       -3.8281300227         3.5564816855        -0.3510492896 
O       -4.3332733552         3.0605486423        -1.0388454392 
C       -5.5071618177         2.5227766233        -0.4340085473 
H       -5.2702862731         1.7850799019         0.3471082725 
H       -6.1371773512         3.3119253518         0.0085688971 
H       -6.0779883133         2.0168326987        -1.2225417145 
H       -1.8324464682         3.5964420061         2.1621402625 
C       -1.5955709236         4.3341387275         1.3810234427 
O       -2.7694593861         4.8719107465         0.7761865508 
H       -1.0247444280         3.8281948029         0.5924902755 
H       -0.9655553901         5.1232874560         1.8236008871 
H       -3.2746027186         5.3678437897         1.4639827004 
H       -1.0247444280         0.2054705945         4.2225542555 
C       -1.5955709236         0.7114145191         5.0110874227 
O       -2.7694593861         1.2491865381         4.4062505308 
H       -1.8324464682        -0.0262822023         5.7922042425 
H       -0.9655553901         1.5005632476         5.4536648671 
H       -3.2746027186         1.7451195813         5.0940466804 
H        1.8324464682        -3.5964420061        -3.2829557075 
C        1.5955709236        -4.3341387275        -4.0640725273 
H        0.9655553901        -5.1232874560        -3.6214950829 
H        1.0247444280        -3.8281948029        -4.8526056945 
O        2.7694593861        -4.8719107465        -4.6689094192 
H        3.2746027186        -5.3678437897        -3.9811132696 
H        0.9655553901        -1.5005632476        -3.6214950829 
C        1.5955709236        -0.7114145191        -4.0640725273 
H        1.8324464682         0.0262822023        -3.2829557075 
H        1.0247444280        -0.2054705945        -4.8526056945 
O        2.7694593861        -1.2491865381        -4.6689094192 
H        3.2746027186        -1.7451195813        -3.9811132696 
C        1.5955709236        -0.7114145191         3.1960554327 
H        1.8324464682         0.0262822023         3.9771722525 
H        0.9655553901        -1.5005632476         3.6386328771 
H        1.0247444280        -0.2054705945         2.4075222655 
O        2.7694593861        -1.2491865381         2.5912185408 
H        3.2746027186        -1.7451195813         3.2790146904 
H        1.8324464682        -3.5964420061         0.3471082725 
C        1.5955709236        -4.3341387275        -0.4340085473 
H        0.9655553901        -5.1232874560         0.0085688971 
H        1.0247444280        -3.8281948029        -1.2225417145 
O        2.7694593861        -4.8719107465        -1.0388454392 
H        3.2746027186        -5.3678437897        -0.3510492896 
H        0.9655553901         2.1221609608        -3.6214950829 
C        1.5955709236         2.9113096893        -4.0640725273 
H        1.8324464682         3.6490064107        -3.2829557075 
H        1.0247444280         3.4172536139        -4.8526056945 
O        2.7694593861         2.3735376703        -4.6689094192 
H        3.2746027186         1.8776046271        -3.9811132696 
O        4.3332733552         0.5621755661        -2.8538774292 
H        3.8281300227         0.0662425229        -2.1660812796 
C        5.5071618177         1.0999475851        -2.2490405373 
H        6.0779883133         1.6058915097        -3.0375737045 
H        6.1371773512         0.3107988566        -1.8064630929 
H        5.2702862731         1.8376443065        -1.4679237175 
H        1.0247444280        -3.8281948029         2.4075222655 
C        1.5955709236        -4.3341387275         3.1960554327 
H        1.8324464682        -3.5964420061         3.9771722525 
H        0.9655553901        -5.1232874560         3.6386328771 
O        2.7694593861        -4.8719107465         2.5912185408 
H        3.2746027186        -5.3678437897         3.2790146904 
