          96

C        2.5986393843         1.2519489588         3.4310555377 
O        1.6533198491         0.8756415667         2.4219858843 
H        2.4778851022         0.6546724859         4.3488220287 
H        3.6316400723         1.1320015578         3.0655871112 
H        2.4361100388         2.3044416141         3.6923967793 
H        1.4839083704        -0.1150522565         2.4607935342 
H        4.6666868426         1.5341292544         0.5835002281 
C        5.2639633155         1.4133749723        -0.3342662629 
H        5.1440159144         0.3803742844        -0.6997346894 
O        4.8876559234         2.3586945075        -1.3433359163 
H        6.3164559707         1.5759043178        -0.0729250213 
H        3.8969621002         2.5281059862        -1.3045282664 
H        1.5341292544         3.3573418707         0.5835002281 
C        1.4133749723         2.7600653978        -0.3342662629 
H        1.5759043178         1.7075727426        -0.0729250213 
H        0.3803742844         2.8800127989        -0.6997346894 
O        2.3586945075         3.1363727899        -1.3433359163 
H        2.5281059862         4.1270666131        -1.3045282664 
H        0.1150522565         1.4839083704         2.4607935342 
O       -0.8756415667         1.6533198491         2.4219858843 
C       -1.2519489588         2.5986393843         3.4310555377 
H       -2.3044416141         2.4361100388         3.6923967793 
H       -0.6546724859         2.4778851022         4.3488220287 
H       -1.1320015578         3.6316400723         3.0655871112 
C       -1.4133749723        -2.7600653978        -0.3342662629 
H       -1.5341292544        -3.3573418707         0.5835002281 
O       -2.3586945075        -3.1363727899        -1.3433359163 
H       -0.3803742844        -2.8800127989        -0.6997346894 
H       -1.5759043178        -1.7075727426        -0.0729250213 
H       -2.5281059862        -4.1270666131        -1.3045282664 
C       -2.5986393843        -1.2519489588        -4.0995880635 
O       -1.6533198491        -0.8756415667        -5.1086577169 
H       -2.4361100388        -2.3044416141        -3.8382468219 
H       -2.4778851022        -0.6546724859        -3.1818215725 
H       -3.6316400723        -1.1320015578        -4.4650564900 
H       -1.4839083704         0.1150522565        -5.0698500670 
H       -5.1440159144        -0.3803742844        -0.6997346894 
C       -5.2639633155        -1.4133749723        -0.3342662629 
H       -4.6666868426        -1.5341292544         0.5835002281 
H       -6.3164559707        -1.5759043178        -0.0729250213 
O       -4.8876559234        -2.3586945075        -1.3433359163 
H       -3.8969621002        -2.5281059862        -1.3045282664 
H       -0.1150522565        -1.4839083704        -5.0698500670 
O        0.8756415667        -1.6533198491        -5.1086577169 
C        1.2519489588        -2.5986393843        -4.0995880635 
H        0.6546724859        -2.4778851022        -3.1818215725 
H        1.1320015578        -3.6316400723        -4.4650564900 
H        2.3044416141        -2.4361100388        -3.8382468219 
C       -2.5986393843        -1.2519489588         3.4310555377 
O       -1.6533198491        -0.8756415667         2.4219858843 
H       -2.4361100388        -2.3044416141         3.6923967793 
H       -2.4778851022        -0.6546724859         4.3488220287 
H       -3.6316400723        -1.1320015578         3.0655871112 
H       -1.4839083704         0.1150522565         2.4607935342 
H       -0.1150522565        -1.4839083704         2.4607935342 
O        0.8756415667        -1.6533198491         2.4219858843 
C        1.2519489588        -2.5986393843         3.4310555377 
H        0.6546724859        -2.4778851022         4.3488220287 
H        1.1320015578        -3.6316400723         3.0655871112 
H        2.3044416141        -2.4361100388         3.6923967793 
C       -2.7600653978         1.4133749723        -0.3342662629 
H       -3.3573418707         1.5341292544         0.5835002281 
H       -2.8800127989         0.3803742844        -0.6997346894 
O       -3.1363727899         2.3586945075        -1.3433359163 
H       -1.7075727426         1.5759043178        -0.0729250213 
H       -4.1270666131         2.5281059862        -1.3045282664 
C       -1.2519489588         2.5986393843        -4.0995880635 
O       -0.8756415667         1.6533198491        -5.1086577169 
H       -2.3044416141         2.4361100388        -3.8382468219 
H       -0.6546724859         2.4778851022        -3.1818215725 
H       -1.1320015578         3.6316400723        -4.4650564900 
H        0.1150522565         1.4839083704        -5.0698500670 
H       -0.3803742844         5.1440159144        -0.6997346894 
C       -1.4133749723         5.2639633155        -0.3342662629 
H       -1.5341292544         4.6666868426         0.5835002281 
O       -2.3586945075         4.8876559234        -1.3433359163 
H       -1.5759043178         6.3164559707        -0.0729250213 
H       -2.5281059862         3.8969621002        -1.3045282664 
C        2.7600653978        -1.4133749723        -0.3342662629 
H        3.3573418707        -1.5341292544         0.5835002281 
H        1.7075727426        -1.5759043178        -0.0729250213 
O        3.1363727899        -2.3586945075        -1.3433359163 
H        2.8800127989        -0.3803742844        -0.6997346894 
H        4.1270666131        -2.5281059862        -1.3045282664 
H        0.3803742844        -5.1440159144        -0.6997346894 
C        1.4133749723        -5.2639633155        -0.3342662629 
H        1.5341292544        -4.6666868426         0.5835002281 
H        1.5759043178        -6.3164559707        -0.0729250213 
O        2.3586945075        -4.8876559234        -1.3433359163 
H        2.5281059862        -3.8969621002        -1.3045282664 
H        1.4839083704        -0.1150522565        -5.0698500670 
O        1.6533198491         0.8756415667        -5.1086577169 
C        2.5986393843         1.2519489588        -4.0995880635 
H        2.4778851022         0.6546724859        -3.1818215725 
H        3.6316400723         1.1320015578        -4.4650564900 
H        2.4361100388         2.3044416141        -3.8382468219 
