         120

C        4.8593001586         1.4489728466         1.4362882252 
H        5.7252765222         1.9023094419         1.9450859464 
O        3.6131031701         1.9644599391         1.9379027510 
H        4.9466120397         1.6264384259         0.3539329816 
H        4.8729624818         0.3673326689         1.6197936191 
H        3.6104517281         2.9643966198         1.8165393545 
H        0.7811386993         1.9023094419         1.9450859464 
C       -0.0848376643         1.4489728466         1.4362882252 
O       -1.3310346528         1.9644599391         1.9379027510 
H        0.0024742168         1.6264384259         0.3539329816 
H       -0.0711753411         0.3673326689         1.6197936191 
H       -1.3336860948         2.9643966198         1.8165393545 
H        3.4094725898         1.8478055998         3.5783455511 
O        3.3085988144         1.9521152397         4.5757351717 
C        2.0795535151         1.3313633838         4.9912900293 
H        2.0695437641         0.2608471523         4.7366732766 
H        2.0097697283         1.4348414433         6.0810993515 
H        1.1998388581         1.8140818059         4.5350869077 
C       -4.8593001586        -1.4489728466        -1.4362882252 
H       -5.7252765222        -1.9023094419        -1.9450859464 
O       -3.6131031701        -1.9644599391        -1.9379027510 
H       -4.9466120397        -1.6264384259        -0.3539329816 
H       -4.8729624818        -0.3673326689        -1.6197936191 
H       -3.6104517281        -2.9643966198        -1.8165393545 
H       -0.7811386993        -1.9023094419        -1.9450859464 
C        0.0848376643        -1.4489728466        -1.4362882252 
O        1.3310346528        -1.9644599391        -1.9379027510 
H       -0.0024742168        -1.6264384259        -0.3539329816 
H        0.0711753411        -0.3673326689        -1.6197936191 
H        1.3336860948        -2.9643966198        -1.8165393545 
H       -3.4094725898        -1.8478055998        -3.5783455511 
O       -3.3085988144        -1.9521152397        -4.5757351717 
C       -2.0795535151        -1.3313633838        -4.9912900293 
H       -2.0695437641        -0.2608471523        -4.7366732766 
H       -2.0097697283        -1.4348414433        -6.0810993515 
H       -1.1998388581        -1.8140818059        -4.5350869077 
H       -1.2615705950        -1.9854416943         4.5457296365 
C       -0.3955942314        -1.5321050990         5.0545273577 
O        0.8506027571        -2.0475921915         4.5529128319 
H       -0.4829061125        -1.7095706783         6.1368826013 
H       -0.4092565546        -0.4504649213         4.8710219638 
H        0.8532541991        -3.0475288722         4.6742762284 
H       -3.8899044855        -1.9309378522         2.9124700318 
O       -3.7890307101        -2.0352474921         1.9150804112 
C       -2.5599854108        -1.4144956362         1.4995255536 
H       -2.5499756597        -0.3439794047         1.7541423063 
H       -2.4902016240        -1.5179736957         0.4097162314 
H       -1.6802707538        -1.8972140583         1.9557286752 
H        0.4092565546         0.4504649213        -4.8710219638 
C        0.3955942314         1.5321050990        -5.0545273577 
H        1.2615705950         1.9854416943        -4.5457296365 
O       -0.8506027571         2.0475921915        -4.5529128319 
H        0.4829061125         1.7095706783        -6.1368826013 
H       -0.8532541991         3.0475288722        -4.6742762284 
O       -1.1662684457         4.6985923662        -1.9379027510 
C       -2.4124654341         5.2140794587        -1.4362882252 
H       -1.1636170037         3.6986556855        -1.8165393545 
H       -3.2784417978         4.7607428634        -1.9450859464 
H       -2.4997773153         5.0366138794        -0.3539329816 
H       -2.4261277574         6.2957196364        -1.6197936191 
H       -1.0542333374         1.9309378522        -2.9124700318 
O       -1.1551071128         2.0352474921        -1.9150804112 
C       -2.3841524121         1.4144956362        -1.4995255536 
H       -2.3941621632         0.3439794047        -1.7541423063 
H       -2.4539361989         1.5179736957        -0.4097162314 
H       -3.2638670691         1.8972140583        -1.9557286752 
H       -4.1629991236         1.9023094419         1.9450859464 
C       -5.0289754872         1.4489728466         1.4362882252 
O       -6.2751724757         1.9644599391         1.9379027510 
H       -4.9416636061         1.6264384259         0.3539329816 
H       -5.0153131640         0.3673326689         1.6197936191 
H       -6.2778239177         2.9643966198         1.8165393545 
H       -1.5346652331         1.8478055998         3.5783455511 
O       -1.6355390085         1.9521152397         4.5757351717 
C       -2.8645843078         1.3313633838         4.9912900293 
H       -2.8745940588         0.2608471523         4.7366732766 
H       -2.9343680946         1.4348414433         6.0810993515 
H       -3.7442989648         1.8140818059         4.5350869077 
O       -1.3421959857         4.6278048132         1.9150804112 
C       -0.1131506863         5.2485566691         1.4995255536 
H       -1.4430697611         4.7321144531         2.9124700318 
H       -0.1031409353         6.3190729007         1.7541423063 
H       -0.0433668996         5.1450786096         0.4097162314 
H        0.7665639706         4.7658382471         1.9557286752 
H        4.1629991236        -1.9023094419        -1.9450859464 
C        5.0289754872        -1.4489728466        -1.4362882252 
O        6.2751724757        -1.9644599391        -1.9379027510 
H        4.9416636061        -1.6264384259        -0.3539329816 
H        5.0153131640        -0.3673326689        -1.6197936191 
H        6.2778239177        -2.9643966198        -1.8165393545 
H        1.5346652331        -1.8478055998        -3.5783455511 
O        1.6355390085        -1.9521152397        -4.5757351717 
C        2.8645843078        -1.3313633838        -4.9912900293 
H        2.8745940588        -0.2608471523        -4.7366732766 
H        2.9343680946        -1.4348414433        -6.0810993515 
H        3.7442989648        -1.8140818059        -4.5350869077 
O        1.3421959857        -4.6278048132        -1.9150804112 
H        1.4430697611        -4.7321144531        -2.9124700318 
C        0.1131506863        -5.2485566691        -1.4995255536 
H        0.1031409353        -6.3190729007        -1.7541423063 
H        0.0433668996        -5.1450786096        -0.4097162314 
H       -0.7665639706        -4.7658382471        -1.9557286752 
O        1.1662684457        -4.6985923662         1.9379027510 
H        1.1636170037        -3.6986556855         1.8165393545 
C        2.4124654341        -5.2140794587         1.4362882252 
H        3.2784417978        -4.7607428634         1.9450859464 
H        2.4997773153        -5.0366138794         0.3539329816 
H        2.4261277574        -6.2957196364         1.6197936191 
H        1.0542333374        -1.9309378522         2.9124700318 
O        1.1551071128        -2.0352474921         1.9150804112 
C        2.3841524121        -1.4144956362         1.4995255536 
H        2.3941621632        -0.3439794047         1.7541423063 
H        2.4539361989        -1.5179736957         0.4097162314 
H        3.2638670691        -1.8972140583         1.9557286752 
H        3.8899044855         1.9309378522        -2.9124700318 
O        3.7890307101         2.0352474921        -1.9150804112 
C        2.5599854108         1.4144956362        -1.4995255536 
H        2.5499756597         0.3439794047        -1.7541423063 
H        2.4902016240         1.5179736957        -0.4097162314 
H        1.6802707538         1.8972140583        -1.9557286752 
