          90

C        0.1208625645         0.1996218092         0.3689770119 
H       -0.8372818039         0.2783370624        -0.1644315287 
H        0.8781594461         0.7751833011        -0.1878940643 
H        0.0028900339         0.6449408193         1.3653472182 
O        0.5313600031        -1.1630580173         0.5247356384 
H        0.3623929701        -1.6639958788        -0.3339955899 
H       -0.4529852549         0.2783370624         4.2879413081 
C        0.5051591135         0.1996218092         4.8213498487 
H        1.2624559951         0.7751833011         4.2644787726 
H        0.3871865829         0.6449408193         5.8177200550 
O        0.9156565521        -1.1630580173         4.9771084753 
H        0.7466895191        -1.6639958788         4.1183772470 
O       -2.3193558137         1.1630580173         2.7509220569 
H       -2.4883228467         1.6639958788         1.8921908286 
C       -2.7298532524        -0.1996218092         2.5951634303 
H       -3.6879976207        -0.2783370624         2.0617548897 
H       -1.9725563707        -0.7751833011         2.0382923541 
H       -2.8478257829        -0.6449408193         3.5915336366 
H        3.5974053360         1.6639958788         1.8921908286 
O        3.7663723690         1.1630580173         2.7509220569 
C        3.3558749303        -0.1996218092         2.5951634303 
H        2.3977305620        -0.2783370624         2.0617548897 
H        4.1131718120        -0.7751833011         2.0382923541 
H        3.2379023998        -0.6449408193         3.5915336366 
H       -2.3802489217         1.9906075731         4.1263994411 
O       -2.3871467986         2.4955310540         4.9995468003 
C       -3.4377096766         3.4607696483         4.9856642337 
H       -3.5687776330         3.8359746973         6.0096127740 
H       -4.3955692791         3.0286976952         4.6517649442 
H       -3.1845939789         4.3122685230         4.3319792305 
O        3.3142848351         2.4955310540         0.5471739635 
H        3.3211827120         1.9906075731        -0.3259733957 
C        2.2637219571         3.4607696483         0.5332913969 
H        2.1326540007         3.8359746973         1.5572399371 
H        1.3058623546         3.0286976952         0.1993921074 
H        2.5168376548         4.3122685230        -0.1203936063 
C       -3.1141498014        -0.1996218092        -1.8572094065 
H       -4.0722941697        -0.2783370624        -2.3906179471 
H       -2.3568529197        -0.7751833011        -2.4140804827 
O       -2.7036523627         1.1630580173        -1.7014507800 
H       -3.2321223319        -0.6449408193        -0.8608392002 
H       -2.8726193957         1.6639958788        -2.5601820083 
H        2.0134340130        -0.2783370624        -2.3906179471 
C        2.9715783813        -0.1996218092        -1.8572094065 
H        3.7288752630        -0.7751833011        -2.4140804827 
O        3.3820758200         1.1630580173        -1.7014507800 
H        2.8536058508        -0.6449408193        -0.8608392002 
H        3.2131087870         1.6639958788        -2.5601820083 
O        0.1470634541        -1.1630580173        -3.9276371984 
C       -0.2634339845         0.1996218092        -4.0833958249 
H       -0.0219035789        -1.6639958788        -4.7863684267 
H       -1.2215783529         0.2783370624        -4.6168043655 
H        0.4938628971         0.7751833011        -4.6402669011 
H       -0.3814065151         0.6449408193        -3.0870256186 
H        0.0861703461        -1.9906075731        -2.5521598142 
O        0.0792724692        -2.4955310540        -1.6790124549 
C       -0.9712904088        -3.4607696483        -1.6928950215 
H       -0.7181747110        -4.3122685230        -2.3465800247 
H       -1.1023583651        -3.8359746973        -0.6689464813 
H       -1.9291500112        -3.0286976952        -2.0267943110 
H       -5.2075687366         0.7751833011        -0.1878940643 
C       -5.9648656182         0.1996218092         0.3689770119 
H       -6.9230099866         0.2783370624        -0.1644315287 
H       -6.0828381488         0.6449408193         1.3653472182 
O       -5.5543681796        -1.1630580173         0.5247356384 
H       -5.7233352126        -1.6639958788        -0.3339955899 
H       -2.7645454707         1.9906075731        -0.3259733957 
O       -2.7714433476         2.4955310540         0.5471739635 
C       -3.8220062256         3.4607696483         0.5332913969 
H       -3.9530741820         3.8359746973         1.5572399371 
H       -4.7798658281         3.0286976952         0.1993921074 
H       -3.5688905279         4.3122685230        -0.1203936063 
H        1.7483574517         3.8359746973        -2.8951328997 
C        1.8794254081         3.4607696483        -3.9190814399 
H        0.9215658056         3.0286976952        -4.2529807294 
O        2.9299882861         2.4955310540        -3.9051988733 
H        2.1325411058         4.3122685230        -4.5727664431 
H        2.9368861630         1.9906075731        -4.7783462326 
H        0.4704668951        -1.9906075731         1.9002130227 
O        0.4635690182        -2.4955310540         2.7733603819 
C       -0.5869938598        -3.4607696483         2.7594778153 
H       -0.3338781620        -4.3122685230         2.1057928121 
H       -0.7180618161        -3.8359746973         3.7834263556 
H       -1.5448534622        -3.0286976952         2.4255785258 
H        5.2484463788         0.2783370624        -0.1644315287 
C        6.2065907472         0.1996218092         0.3689770119 
H        6.9638876288         0.7751833011        -0.1878940643 
H        6.0886182166         0.6449408193         1.3653472182 
O        6.6170881858        -1.1630580173         0.5247356384 
H        6.4481211528        -1.6639958788        -0.3339955899 
