         120

C        1.1379923774         1.0059045914         4.8043745321 
H        2.1234347947         1.3971018750         5.0895546184 
H        1.1498266384        -0.0942164785         4.8766791344 
O        0.1447284608         1.5699418851         5.6677409834 
H        0.9526483536         1.2818202194         3.7537152022 
H       -0.7336836904         1.5858550952         5.1758783502 
H        1.9006127622         0.0942164785         1.2525174174 
C        1.8887785011        -1.0059045914         1.1802128151 
H        2.8742209184        -1.3971018750         1.4653929014 
O        0.8955145845        -1.5699418851         2.0435792664 
H        1.7034344773        -1.2818202194         0.1295534851 
H        0.0171024334        -1.5858550952         1.5517166332 
H        3.3847525763         2.7824508760         1.5517166332 
O        4.2631647275         2.7983640861         2.0435792664 
C        5.2564286441         3.3624013799         1.1802128151 
H        5.2682629051         4.4625224498         1.2525174174 
H        5.0710846203         3.0864857518         0.1295534851 
H        6.2418710614         2.9712040963         1.4653929014 
O        2.0188026178         2.9147483589         0.6636615711 
H        1.9168974834         2.3589381614        -0.1667273976 
C        1.8618101828         4.2916661476         0.2871964387 
H        2.7460038319         4.6765700321        -0.2457103862 
H        0.9767163400         4.4236750261        -0.3513323334 
H        1.7176860749         4.8793973444         1.1997367904 
H        5.0853362178         0.5110913732         1.1997367904 
C        5.2294603257        -0.0766398236         0.2871964387 
H        6.1136539748         0.3082640608        -0.2457103862 
O        5.3864527608        -1.4535576124         0.6636615711 
H        4.3443664829         0.0553690549        -0.3513323334 
H        5.2845476263        -2.0093678099        -0.1667273976 
C       -0.7280855181        -3.3624013799        -2.4439489019 
O       -1.7213494347        -2.7983640861        -1.5805824507 
H        0.2573568992        -2.9712040963        -2.1587688156 
H       -0.7162512570        -4.4625224498        -2.3716442996 
H       -0.9134295419        -3.0864857518        -3.4946082319 
H       -2.5997615859        -2.7824508760        -2.0724450838 
H       -4.0839014000        -0.0942164785        -2.3716442996 
C       -4.0957356610         1.0059045914        -2.4439489019 
H       -3.1102932437         1.3971018750        -2.1587688156 
O       -5.0889995776         1.5699418851        -1.5805824507 
H       -4.2810796848         1.2818202194        -3.4946082319 
H       -5.9674117288         1.5858550952        -2.0724450838 
H       -1.4507526596        -2.0093678099        -0.1667273976 
O       -1.3488475251        -1.4535576124         0.6636615711 
C       -1.5058399602        -0.0766398236         0.2871964387 
H       -0.6216463111         0.3082640608        -0.2457103862 
H       -1.6499640681         0.5110913732         1.1997367904 
H       -2.3909338030         0.0553690549        -0.3513323334 
H       -0.8991779443        -0.5110913732        -2.4244249266 
C       -0.7550538364         0.0766398236        -3.3369652783 
H        0.1291398127        -0.3082640608        -3.8698721033 
O       -0.5980614014         1.4535576124        -2.9605001459 
H       -1.6401476792        -0.0553690549        -3.9754940504 
H       -0.6999665359         2.0093678099        -3.7908891146 
C       -4.8465217848        -1.0059045914         1.1802128151 
H       -3.8610793675        -1.3971018750         1.4653929014 
H       -4.8346875237         0.0942164785         1.2525174174 
O       -5.8397857014        -1.5699418851         2.0435792664 
H       -5.0318658086        -1.2818202194         0.1295534851 
H       -6.7181978525        -1.5858550952         1.5517166332 
H       -1.4670373808        -4.2740894927         1.2525174174 
C       -1.4788716418        -5.3742105626         1.1802128151 
O       -2.4721355584        -5.9382478564         2.0435792664 
H       -1.6642156656        -5.6501261907         0.1295534851 
H       -0.4934292245        -5.7654078462         1.4653929014 
H       -3.3505477096        -5.9541610665         1.5517166332 
H       -1.3724324348        -0.3082640608         3.3784513308 
C       -2.2566260839         0.0766398236         3.9113581557 
H       -2.4007501918        -0.5110913732         4.8238985074 
O       -2.0996336488         1.4535576124         4.2878232881 
H       -3.1417199267        -0.0553690549         3.2728293836 
H       -2.2015387833         2.0093678099         3.4574343194 
H       -0.7162512570         4.2740894927        -2.3716442996 
C       -0.7280855181         5.3742105626        -2.4439489019 
O       -1.7213494347         5.9382478564        -1.5805824507 
H        0.2573568992         5.7654078462        -2.1587688156 
H       -0.9134295419         5.6501261907        -3.4946082319 
H       -2.5997615859         5.9541610665        -2.0724450838 
C       -1.4788716418         3.3624013799         1.1802128151 
H       -1.4670373808         4.4625224498         1.2525174174 
O       -2.4721355584         2.7983640861         2.0435792664 
H       -1.6642156656         3.0864857518         0.1295534851 
H       -0.4934292245         2.9712040963         1.4653929014 
H       -3.3505477096         2.7824508760         1.5517166332 
H        2.6513988859        -0.0942164785        -2.3716442996 
C        2.6395646249         1.0059045914        -2.4439489019 
H        3.6250070422         1.3971018750        -2.1587688156 
O        1.6463007083         1.5699418851        -1.5805824507 
H        2.4542206011         1.2818202194        -3.4946082319 
H        0.7678885571         1.5858550952        -2.0724450838 
H        2.6676836071        -2.3589381614        -3.7908891146 
O        2.7695887416        -2.9147483589        -2.9605001459 
C        2.6125963065        -4.2916661476        -3.3369652783 
H        3.4967899556        -4.6765700321        -3.8698721033 
H        1.7275024637        -4.4236750261        -3.9754940504 
H        2.4684721986        -4.8793973444        -2.4244249266 
H        2.7460038319        -4.0600419104        -0.2457103862 
C        1.8618101828        -4.4449457949         0.2871964387 
H        0.9767163400        -4.3129369164        -0.3513323334 
H        1.7176860749        -3.8572145981         1.1997367904 
O        2.0188026178        -5.8218635836         0.6636615711 
H        1.9168974834        -6.3776737811        -0.1667273976 
H        1.1661113596        -2.3589381614         3.4574343194 
O        1.2680164941        -2.9147483589         4.2878232881 
C        1.1110240590        -4.2916661476         3.9113581557 
H        1.9952177082        -4.6765700321         3.3784513308 
H        0.2259302162        -4.4236750261         3.2728293836 
H        0.9668999511        -4.8793973444         4.8238985074 
H        3.5935803592        -0.0553690549         3.2728293836 
C        4.4786742020         0.0766398236         3.9113581557 
H        5.3628678511        -0.3082640608         3.3784513308 
H        4.3345500941        -0.5110913732         4.8238985074 
O        4.6356666371         1.4535576124         4.2878232881 
H        4.5337615026         2.0093678099         3.4574343194 
H        2.4684721986         3.8572145981        -2.4244249266 
C        2.6125963065         4.4449457949        -3.3369652783 
H        3.4967899556         4.0600419104        -3.8698721033 
O        2.7695887416         5.8218635836        -2.9605001459 
H        1.7275024637         4.3129369164        -3.9754940504 
H        2.6676836071         6.3776737811        -3.7908891146 
