         120

C        1.1569477070         1.4872983436         0.0731462418 
H        1.2994710686         1.0854589329        -0.9390839460 
O        0.0260655981         2.3653550919         0.0455878899 
H        0.9876310050         0.6401566795         0.7581191886 
H        2.0810129435         1.9984515171         0.3787286453 
H        0.0072244740         2.9117034101         0.8984199447 
H        3.0015965106         4.2036947455         0.1279883598 
C        3.1441198721         4.6055341563         1.1402185476 
O        4.2750019810         5.4835909046         1.1126601957 
H        2.2200546356         5.1166873298         1.4458009510 
H        3.3134365741         3.7583924922         1.8251914944 
H        4.2938431052         6.0299392227         1.9654922505 
H        1.2994710686         1.0854589329         3.3292052771 
C        1.1569477070         1.4872983436         4.3414354649 
O        0.0260655981         2.3653550919         4.3138771130 
H        0.9876310050         0.6401566795         5.0264084117 
H        2.0810129435         1.9984515171         4.6470178684 
H        0.0072244740         2.9117034101         5.1667091678 
O        4.3271331773         0.7528807208         1.1126601957 
C        5.4580152862         1.6309374691         1.1402185476 
H        4.3082920531         0.2065324026         1.9654922505 
H        5.2886985841         2.4780791332         1.8251914944 
H        6.3820805227         1.1197842956         1.4458009510 
H        5.6005386477         2.0327768798         0.1279883598 
C       -1.1569477070        -1.4872983436        -4.1951429813 
H       -1.2994710686        -1.0854589329        -5.2073731691 
O       -0.0260655981        -2.3653550919        -4.2227013332 
H       -0.9876310050        -0.6401566795        -3.5101700345 
H       -2.0810129435        -1.9984515171        -3.8895605778 
H       -0.0072244740        -2.9117034101        -3.3698692784 
H       -1.2994710686        -1.0854589329        -0.9390839460 
C       -1.1569477070        -1.4872983436         0.0731462418 
O       -0.0260655981        -2.3653550919         0.0455878899 
H       -0.9876310050        -0.6401566795         0.7581191886 
H       -2.0810129435        -1.9984515171         0.3787286453 
H       -0.0072244740        -2.9117034101         0.8984199447 
H       -4.3082920531        -0.2065324026        -2.3027969726 
O       -4.3271331773        -0.7528807208        -3.1556290274 
C       -5.4580152862        -1.6309374691        -3.1280706755 
H       -5.2886985841        -2.4780791332        -2.4430977287 
H       -6.3820805227        -1.1197842956        -2.8224882721 
H       -5.6005386477        -2.0327768798        -4.1403008633 
H       -3.0015965106        -4.2036947455         0.1279883598 
C       -3.1441198721        -4.6055341563         1.1402185476 
H       -3.3134365741        -3.7583924922         1.8251914944 
H       -2.2200546356        -5.1166873298         1.4458009510 
O       -4.2750019810        -5.4835909046         1.1126601957 
H       -4.2938431052        -6.0299392227         1.9654922505 
H       -1.2994710686        -1.0854589329         3.3292052771 
C       -1.1569477070        -1.4872983436         4.3414354649 
O       -0.0260655981        -2.3653550919         4.3138771130 
H       -0.9876310050        -0.6401566795         5.0264084117 
H       -2.0810129435        -1.9984515171         4.6470178684 
H       -0.0072244740        -2.9117034101         5.1667091678 
O       -4.3271331773        -0.7528807208         1.1126601957 
H       -4.3082920531        -0.2065324026         1.9654922505 
C       -5.4580152862        -1.6309374691         1.1402185476 
H       -5.2886985841        -2.4780791332         1.8251914944 
H       -6.3820805227        -1.1197842956         1.4458009510 
H       -5.6005386477        -2.0327768798         0.1279883598 
C       -3.1441198721         1.6309374691        -0.9939260640 
H       -2.2200546356         1.1197842956        -0.6883436605 
O       -4.2750019810         0.7528807208        -1.0214844159 
H       -3.3134365741         2.4780791332        -0.3089531171 
H       -3.0015965106         2.0327768798        -2.0061562518 
H       -4.2938431052         0.2065324026        -0.1686523610 
H       -2.0810129435         4.2380201083        -1.7554159663 
C       -1.1569477070         4.7491732817        -2.0609983697 
H       -0.9876310050         5.5963149458        -1.3760254229 
O       -0.0260655981         3.8711165335        -2.0885567217 
H       -1.2994710686         5.1510126925        -3.0732285575 
H       -0.0072244740         3.3247682153        -1.2357246668 
C       -3.1441198721         1.6309374691         3.2743631591 
H       -2.2200546356         1.1197842956         3.5799455626 
O       -4.2750019810         0.7528807208         3.2468048072 
H       -3.3134365741         2.4780791332         3.9593361060 
H       -3.0015965106         2.0327768798         2.2621329713 
H       -4.2938431052         0.2065324026         4.0996368621 
O       -0.0260655981         3.8711165335         2.1797325014 
H       -0.0072244740         3.3247682153         3.0325645563 
C       -1.1569477070         4.7491732817         2.2072908534 
H       -0.9876310050         5.5963149458         2.8922638002 
H       -2.0810129435         4.2380201083         2.5128732568 
H       -1.2994710686         5.1510126925         1.1950606656 
C        3.1441198721        -1.6309374691        -0.9939260640 
O        4.2750019810        -0.7528807208        -1.0214844159 
H        3.3134365741        -2.4780791332        -0.3089531171 
H        3.0015965106        -2.0327768798        -2.0061562518 
H        2.2200546356        -1.1197842956        -0.6883436605 
H        4.2938431052        -0.2065324026        -0.1686523610 
H        2.0810129435        -4.2380201083        -1.7554159663 
C        1.1569477070        -4.7491732817        -2.0609983697 
O        0.0260655981        -3.8711165335        -2.0885567217 
H        0.9876310050        -5.5963149458        -1.3760254229 
H        1.2994710686        -5.1510126925        -3.0732285575 
H        0.0072244740        -3.3247682153        -1.2357246668 
C        3.1441198721        -1.6309374691         3.2743631591 
O        4.2750019810        -0.7528807208         3.2468048072 
H        3.3134365741        -2.4780791332         3.9593361060 
H        3.0015965106        -2.0327768798         2.2621329713 
H        2.2200546356        -1.1197842956         3.5799455626 
H        4.2938431052        -0.2065324026         4.0996368621 
O        0.0260655981        -3.8711165335         2.1797325014 
H        0.0072244740        -3.3247682153         3.0325645563 
C        1.1569477070        -4.7491732817         2.2072908534 
H        2.0810129435        -4.2380201083         2.5128732568 
H        0.9876310050        -5.5963149458         2.8922638002 
H        1.2994710686        -5.1510126925         1.1950606656 
C        1.1569477070         1.4872983436        -4.1951429813 
H        1.2994710686         1.0854589329        -5.2073731691 
O        0.0260655981         2.3653550919        -4.2227013332 
H        0.9876310050         0.6401566795        -3.5101700345 
H        2.0810129435         1.9984515171        -3.8895605778 
H        0.0072244740         2.9117034101        -3.3698692784 
H        4.3082920531         0.2065324026        -2.3027969726 
O        4.3271331773         0.7528807208        -3.1556290274 
C        5.4580152862         1.6309374691        -3.1280706755 
H        5.2886985841         2.4780791332        -2.4430977287 
H        6.3820805227         1.1197842956        -2.8224882721 
H        5.6005386477         2.0327768798        -4.1403008633 
