          96

C        1.1906231456         2.6163209953         3.4903435929 
O        0.6750864502         1.7487850690         4.5101282295 
H        0.6432524536         2.4979452478         2.5402002802 
H        1.0786803581         3.6554027692         3.8260565022 
H        2.2547113870         2.4205223291         3.2993270085 
H        1.1744895001         0.8757567118         4.4712498318 
H        3.0257453746         0.4490229635         0.2740494777 
C        2.9138025872         1.4881047375        -0.0616634316 
O        3.4293392826         2.3556406638         0.9581212050 
H        1.8497143458         1.6839034037        -0.2526800160 
H        3.4611732792         1.6064804850        -1.0118067443 
H        2.9299362326         3.2286690210         0.9192428073 
H        0.4490229635         5.1831060909         0.2740494777 
C        1.4881047375         5.2950488783        -0.0616634316 
O        2.3556406638         4.7795121829         0.9581212050 
H        1.6064804850         4.7476781863        -1.0118067443 
H        1.6839034037         6.3591371197        -0.2526800160 
H        3.2286690210         5.2789152329         0.9192428073 
C       -2.9138025872        -1.4881047375        -0.0616634316 
O       -3.4293392826        -2.3556406638         0.9581212050 
H       -3.0257453746        -0.4490229635         0.2740494777 
H       -3.4611732792        -1.6064804850        -1.0118067443 
H       -1.8497143458        -1.6839034037        -0.2526800160 
H       -2.9299362326        -3.2286690210         0.9192428073 
C       -1.1906231456        -2.6163209953        -3.6136704560 
H       -2.2547113870        -2.4205223291        -3.8046870404 
H       -0.6432524536        -2.4979452478        -4.5638137687 
H       -1.0786803581        -3.6554027692        -3.2779575467 
O       -0.6750864502        -1.7487850690        -2.5938858194 
H       -1.1744895001        -0.8757567118        -2.6327642171 
H       -1.6064804850        -4.7476781863        -1.0118067443 
C       -1.4881047375        -5.2950488783        -0.0616634316 
O       -2.3556406638        -4.7795121829         0.9581212050 
H       -0.4490229635        -5.1831060909         0.2740494777 
H       -1.6839034037        -6.3591371197        -0.2526800160 
H       -3.2286690210        -5.2789152329         0.9192428073 
C       -1.1906231456        -2.6163209953         3.4903435929 
H       -2.2547113870        -2.4205223291         3.2993270085 
H       -0.6432524536        -2.4979452478         2.5402002802 
H       -1.0786803581        -3.6554027692         3.8260565022 
O       -0.6750864502        -1.7487850690         4.5101282295 
H       -1.1744895001        -0.8757567118         4.4712498318 
C       -2.6163209953         1.1906231456        -3.6136704560 
H       -2.4979452478         0.6432524536        -4.5638137687 
H       -3.6554027692         1.0786803581        -3.2779575467 
H       -2.4205223291         2.2547113870        -3.8046870404 
O       -1.7487850690         0.6750864502        -2.5938858194 
H       -0.8757567118         1.1744895001        -2.6327642171 
C       -1.4881047375         2.9138025872        -0.0616634316 
O       -2.3556406638         3.4293392826         0.9581212050 
H       -0.4490229635         3.0257453746         0.2740494777 
H       -1.6839034037         1.8497143458        -0.2526800160 
H       -1.6064804850         3.4611732792        -1.0118067443 
H       -3.2286690210         2.9299362326         0.9192428073 
H       -4.7476781863         1.6064804850        -1.0118067443 
C       -5.2950488783         1.4881047375        -0.0616634316 
H       -5.1831060909         0.4490229635         0.2740494777 
O       -4.7795121829         2.3556406638         0.9581212050 
H       -6.3591371197         1.6839034037        -0.2526800160 
H       -5.2789152329         3.2286690210         0.9192428073 
C       -2.6163209953         1.1906231456         3.4903435929 
H       -2.4979452478         0.6432524536         2.5402002802 
H       -3.6554027692         1.0786803581         3.8260565022 
H       -2.4205223291         2.2547113870         3.2993270085 
O       -1.7487850690         0.6750864502         4.5101282295 
H       -0.8757567118         1.1744895001         4.4712498318 
C        1.4881047375        -2.9138025872        -0.0616634316 
H        0.4490229635        -3.0257453746         0.2740494777 
O        2.3556406638        -3.4293392826         0.9581212050 
H        1.6064804850        -3.4611732792        -1.0118067443 
H        1.6839034037        -1.8497143458        -0.2526800160 
H        3.2286690210        -2.9299362326         0.9192428073 
C        2.6163209953        -1.1906231456        -3.6136704560 
O        1.7487850690        -0.6750864502        -2.5938858194 
H        2.4205223291        -2.2547113870        -3.8046870404 
H        2.4979452478        -0.6432524536        -4.5638137687 
H        3.6554027692        -1.0786803581        -3.2779575467 
H        0.8757567118        -1.1744895001        -2.6327642171 
H        4.7476781863        -1.6064804850        -1.0118067443 
C        5.2950488783        -1.4881047375        -0.0616634316 
O        4.7795121829        -2.3556406638         0.9581212050 
H        5.1831060909        -0.4490229635         0.2740494777 
H        6.3591371197        -1.6839034037        -0.2526800160 
H        5.2789152329        -3.2286690210         0.9192428073 
C        2.6163209953        -1.1906231456         3.4903435929 
O        1.7487850690        -0.6750864502         4.5101282295 
H        2.4205223291        -2.2547113870         3.2993270085 
H        2.4979452478        -0.6432524536         2.5402002802 
H        3.6554027692        -1.0786803581         3.8260565022 
H        0.8757567118        -1.1744895001         4.4712498318 
C        1.1906231456         2.6163209953        -3.6136704560 
O        0.6750864502         1.7487850690        -2.5938858194 
H        0.6432524536         2.4979452478        -4.5638137687 
H        1.0786803581         3.6554027692        -3.2779575467 
H        2.2547113870         2.4205223291        -3.8046870404 
H        1.1744895001         0.8757567118        -2.6327642171 
