         114

H        2.5468493047         2.4836136966         3.8502997014 
O        2.3536983581         2.0259329127         4.7303384062 
C        3.4537815912         1.1432502651         5.0179132413 
H        4.4146055751         1.6622181269         4.8833539183 
H        3.3673626740         0.8177878672         6.0622893899 
H        3.4402763092         0.2564249372         4.3626885122 
H        1.9770278179         3.6190612520         2.1120239875 
O        2.8262883585         3.1413816935         2.3825115947 
C        3.0876937872         2.0994262279         1.4300367681 
H        3.3802779612         2.5185516940         0.4550603511 
H        3.9200048182         1.4943882247         1.8123163238 
H        2.2136107734         1.4447919944         1.2927516487 
H       -1.9770278179        -3.4664437528        -2.1120239875 
O       -2.8262883585        -3.9441233113        -2.3825115947 
C       -3.0876937872        -4.9860787769        -1.4300367681 
H       -2.2136107734        -5.6407130104        -1.2927516487 
H       -3.3802779612        -4.5669533108        -0.4550603511 
H       -3.9200048182        -5.5911167801        -1.8123163238 
C       -3.0876937872        -0.2624087737        -1.4300367681 
H       -2.2136107734        -0.9170430072        -1.2927516487 
O       -2.8262883585         0.7795466919        -2.3825115947 
H       -3.3802779612         0.1567166924        -0.4550603511 
H       -3.9200048182        -0.8674467769        -1.8123163238 
H       -1.9770278179         1.2572262504        -2.1120239875 
C       -0.5358716586        -1.2185847365         1.5384711155 
H       -0.5223663767        -2.1054100644         2.1936958446 
O        0.5642115744        -0.3359020889         1.8260459506 
H       -1.4966956426        -0.6996168747         1.6730304385 
H       -0.4494527415        -1.5440471344         0.4940949669 
H        0.3710606279         0.1217786950         2.7060846554 
O       -4.0163637286        -1.5822883097         2.3825115947 
H       -4.8656242692        -1.1046087512         2.1120239875 
C       -3.7549582999        -2.6242437753         1.4300367681 
H       -3.4623741259        -2.2051183092         0.4550603511 
H       -2.9226472689        -3.2292817785         1.8123163238 
H       -4.6290413137        -3.2788780088         1.2927516487 
C       -0.1697838547        -0.2624087737         5.1263475887 
H        0.7042991592        -0.9170430072         5.2636327081 
O        0.0916215740         0.7795466919         4.1738727621 
H       -0.4623680287         0.1567166924         6.1013240057 
H       -1.0020948857        -0.8674467769         4.7440680330 
H        0.9408821146         1.2572262504         4.4443603693 
H       -2.5468493047         0.1217786950        -3.8502997014 
O       -2.3536983581        -0.3359020889        -4.7303384062 
C       -3.4537815912        -1.2185847365        -5.0179132413 
H       -3.4402763092        -2.1054100644        -4.3626885122 
H       -4.4146055751        -0.6996168747        -4.8833539183 
H       -3.3673626740        -1.5440471344        -6.0622893899 
H       -2.2136107734         3.8066269960        -1.2927516487 
C       -3.0876937872         4.4612612295        -1.4300367681 
O       -2.8262883585         5.5032166951        -2.3825115947 
H       -3.3802779612         4.8803866956        -0.4550603511 
H       -3.9200048182         3.8562232263        -1.8123163238 
H       -1.9770278179         5.9808962536        -2.1120239875 
C       -0.5358716586         3.5050852667         1.5384711155 
H       -0.5223663767         2.6182599388         2.1936958446 
O        0.5642115744         4.3877679143         1.8260459506 
H       -1.4966956426         4.0240531285         1.6730304385 
H       -0.4494527415         3.1796228688         0.4940949669 
H        0.3710606279         4.8454486982         2.7060846554 
C       -3.7549582999         2.0994262279         1.4300367681 
H       -3.4623741259         2.5185516940         0.4550603511 
O       -4.0163637286         3.1413816935         2.3825115947 
H       -2.9226472689         1.4943882247         1.8123163238 
H       -4.6290413137         1.4447919944         1.2927516487 
H       -4.8656242692         3.6190612520         2.1120239875 
C        0.5358716586        -3.5804197381        -1.5384711155 
O       -0.5642115744        -2.6977370905        -1.8260459506 
H        1.4966956426        -3.0614518763        -1.6730304385 
H        0.4494527415        -3.9058821360        -0.4940949669 
H        0.5223663767        -4.4672450660        -2.1936958446 
H       -0.3710606279        -2.2400563066        -2.7060846554 
H       -0.9408821146        -1.1046087512        -4.4443603693 
O       -0.0916215740        -1.5822883097        -4.1738727621 
C        0.1697838547        -2.6242437753        -5.1263475887 
H        0.4623680287        -2.2051183092        -6.1013240057 
H        1.0020948857        -3.2292817785        -4.7440680330 
H       -0.7042991592        -3.2788780088        -5.2636327081 
C        3.7549582999        -0.2624087737        -1.4300367681 
H        4.6290413137        -0.9170430072        -1.2927516487 
O        4.0163637286         0.7795466919        -2.3825115947 
H        3.4623741259         0.1567166924        -0.4550603511 
H        2.9226472689        -0.8674467769        -1.8123163238 
H        4.8656242692         1.2572262504        -2.1120239875 
H        2.5468493047        -2.2400563066         3.8502997014 
O        2.3536983581        -2.6977370905         4.7303384062 
C        3.4537815912        -3.5804197381         5.0179132413 
H        4.4146055751        -3.0614518763         4.8833539183 
H        3.3673626740        -3.9058821360         6.0622893899 
H        3.4402763092        -4.4672450660         4.3626885122 
H        1.9770278179        -1.1046087512         2.1120239875 
O        2.8262883585        -1.5822883097         2.3825115947 
C        3.0876937872        -2.6242437753         1.4300367681 
H        3.3802779612        -2.2051183092         0.4550603511 
H        3.9200048182        -3.2292817785         1.8123163238 
H        2.2136107734        -3.2788780088         1.2927516487 
C        0.5358716586         1.1432502651        -1.5384711155 
O       -0.5642115744         2.0259329127        -1.8260459506 
H        1.4966956426         1.6622181269        -1.6730304385 
H        0.4494527415         0.8177878672        -0.4940949669 
H        0.5223663767         0.2564249372        -2.1936958446 
H       -0.3710606279         2.4836136966        -2.7060846554 
O       -0.0916215740         3.1413816935        -4.1738727621 
H       -0.9408821146         3.6190612520        -4.4443603693 
C        0.1697838547         2.0994262279        -5.1263475887 
H        0.4623680287         2.5185516940        -6.1013240057 
H        1.0020948857         1.4943882247        -4.7440680330 
H       -0.7042991592         1.4447919944        -5.2636327081 
H        2.9226472689         3.8562232263        -1.8123163238 
C        3.7549582999         4.4612612295        -1.4300367681 
H        4.6290413137         3.8066269960        -1.2927516487 
O        4.0163637286         5.5032166951        -2.3825115947 
H        3.4623741259         4.8803866956        -0.4550603511 
H        4.8656242692         5.9808962536        -2.1120239875 
