         132

C        3.3414485848         1.7731672312         1.9125955610 
H        3.8247454679         1.2654506971         1.0598759411 
H        2.2487125392         1.6441918094         1.8240630248 
O        3.7172816896         3.1416705725         1.9762027484 
H        3.6758959679         1.2845640679         2.8386451638 
H        3.4231960867         3.5878683923         1.1175234761 
H        1.0678841294         1.6441918094         4.0410106948 
C       -0.0248519162         1.7731672312         4.1295432310 
H       -0.3592992993         1.2845640679         5.0555928338 
H       -0.5081487992         1.2654506971         3.2768236111 
O       -0.4006850210         3.1416705725         4.1931504184 
H       -0.1065994181         3.5878683923         3.3344711461 
O        0.4006850210         4.3080289631         1.9762027484 
H        0.1065994181         3.8618311434         1.1175234761 
C        0.0248519162         5.6765323045         1.9125955610 
H       -1.0678841294         5.8055077263         1.8240630248 
H        0.5081487992         6.1842488386         1.0598759411 
H        0.3592992993         6.1651354678         2.8386451638 
C       -3.3414485848        -1.7731672312        -2.5212997790 
O       -3.7172816896        -3.1416705725        -2.4576925916 
H       -3.8247454679        -1.2654506971        -3.3740193989 
H       -2.2487125392        -1.6441918094        -2.6098323152 
H       -3.6758959679        -1.2845640679        -1.5952501762 
H       -3.4231960867        -3.5878683923        -3.3163718639 
H       -1.0678841294        -1.6441918094        -0.3928846452 
C        0.0248519162        -1.7731672312        -0.3043521090 
H        0.3592992993        -1.2845640679         0.6216974938 
O        0.4006850210        -3.1416705725        -0.2407449216 
H        0.5081487992        -1.2654506971        -1.1570717289 
H        0.1065994181        -3.5878683923        -1.0994241939 
O       -0.4006850210        -4.3080289631        -2.4576925916 
C       -0.0248519162        -5.6765323045        -2.5212997790 
H       -0.1065994181        -3.8618311434        -3.3163718639 
H        1.0678841294        -5.8055077263        -2.6098323152 
H       -0.5081487992        -6.1842488386        -3.3740193989 
H       -0.3592992993        -6.1651354678        -1.5952501762 
O       -2.9159116477        -4.3080289631        -0.2407449216 
C       -3.2917447525        -5.6765323045        -0.3043521090 
H       -3.2099972506        -3.8618311434        -1.0994241939 
H       -2.9572973694        -6.1651354678         0.6216974938 
H       -2.8084478694        -6.1842488386        -1.1570717289 
H       -4.3844807981        -5.8055077263        -0.3928846452 
C       -3.3414485848        -1.7731672312         1.9125955610 
O       -3.7172816896        -3.1416705725         1.9762027484 
H       -3.8247454679        -1.2654506971         1.0598759411 
H       -2.2487125392        -1.6441918094         1.8240630248 
H       -3.6758959679        -1.2845640679         2.8386451638 
H       -3.4231960867        -3.5878683923         1.1175234761 
H       -1.0678841294        -1.6441918094         4.0410106948 
C        0.0248519162        -1.7731672312         4.1295432310 
H        0.3592992993        -1.2845640679         5.0555928338 
O        0.4006850210        -3.1416705725         4.1931504184 
H        0.5081487992        -1.2654506971         3.2768236111 
H        0.1065994181        -3.5878683923         3.3344711461 
O       -0.4006850210        -4.3080289631         1.9762027484 
C       -0.0248519162        -5.6765323045         1.9125955610 
H       -0.1065994181        -3.8618311434         1.1175234761 
H        1.0678841294        -5.8055077263         1.8240630248 
H       -0.5081487992        -6.1842488386         1.0598759411 
H       -0.3592992993        -6.1651354678         2.8386451638 
C       -0.0248519162         1.7731672312        -0.3043521090 
H       -0.3592992993         1.2845640679         0.6216974938 
H        1.0678841294         1.6441918094        -0.3928846452 
H       -0.5081487992         1.2654506971        -1.1570717289 
O       -0.4006850210         3.1416705725        -0.2407449216 
H       -0.1065994181         3.5878683923        -1.0994241939 
C       -3.2917447525         1.7731672312        -2.5212997790 
H       -2.8084478694         1.2654506971        -3.3740193989 
H       -4.3844807981         1.6441918094        -2.6098323152 
O       -2.9159116477         3.1416705725        -2.4576925916 
H       -2.9572973694         1.2845640679        -1.5952501762 
H       -3.2099972506         3.5878683923        -3.3163718639 
H       -0.3592992993         1.2845640679        -3.8121978462 
C       -0.0248519162         1.7731672312        -4.7382474490 
H        1.0678841294         1.6441918094        -4.8267799852 
H       -0.5081487992         1.2654506971        -5.5909670689 
O       -0.4006850210         3.1416705725        -4.6746402616 
H       -0.1065994181         3.5878683923        -5.5333195339 
H       -3.4231960867         3.8618311434        -1.0994241939 
O       -3.7172816896         4.3080289631        -0.2407449216 
C       -3.3414485848         5.6765323045        -0.3043521090 
H       -3.6758959679         6.1651354678         0.6216974938 
H       -3.8247454679         6.1842488386        -1.1570717289 
H       -2.2487125392         5.8055077263        -0.3928846452 
C       -3.2917447525         1.7731672312         1.9125955610 
H       -2.8084478694         1.2654506971         1.0598759411 
H       -4.3844807981         1.6441918094         1.8240630248 
O       -2.9159116477         3.1416705725         1.9762027484 
H       -2.9572973694         1.2845640679         2.8386451638 
H       -3.2099972506         3.5878683923         1.1175234761 
C        3.2917447525        -1.7731672312        -2.5212997790 
O        2.9159116477        -3.1416705725        -2.4576925916 
H        2.8084478694        -1.2654506971        -3.3740193989 
H        4.3844807981        -1.6441918094        -2.6098323152 
H        2.9572973694        -1.2845640679        -1.5952501762 
H        3.2099972506        -3.5878683923        -3.3163718639 
H        0.3592992993        -1.2845640679        -3.8121978462 
C        0.0248519162        -1.7731672312        -4.7382474490 
O        0.4006850210        -3.1416705725        -4.6746402616 
H       -1.0678841294        -1.6441918094        -4.8267799852 
H        0.5081487992        -1.2654506971        -5.5909670689 
H        0.1065994181        -3.5878683923        -5.5333195339 
H        3.4231960867        -3.8618311434        -1.0994241939 
O        3.7172816896        -4.3080289631        -0.2407449216 
C        3.3414485848        -5.6765323045        -0.3043521090 
H        3.6758959679        -6.1651354678         0.6216974938 
H        3.8247454679        -6.1842488386        -1.1570717289 
H        2.2487125392        -5.8055077263        -0.3928846452 
C        3.2917447525        -1.7731672312         1.9125955610 
O        2.9159116477        -3.1416705725         1.9762027484 
H        2.8084478694        -1.2654506971         1.0598759411 
H        4.3844807981        -1.6441918094         1.8240630248 
H        2.9572973694        -1.2845640679         2.8386451638 
H        3.2099972506        -3.5878683923         1.1175234761 
C        3.3414485848         1.7731672312        -2.5212997790 
H        3.8247454679         1.2654506971        -3.3740193989 
H        2.2487125392         1.6441918094        -2.6098323152 
O        3.7172816896         3.1416705725        -2.4576925916 
H        3.6758959679         1.2845640679        -1.5952501762 
H        3.4231960867         3.5878683923        -3.3163718639 
O        0.4006850210         4.3080289631        -2.4576925916 
H        0.1065994181         3.8618311434        -3.3163718639 
C        0.0248519162         5.6765323045        -2.5212997790 
H       -1.0678841294         5.8055077263        -2.6098323152 
H        0.5081487992         6.1842488386        -3.3740193989 
H        0.3592992993         6.1651354678        -1.5952501762 
O        2.9159116477         4.3080289631        -0.2407449216 
H        3.2099972506         3.8618311434        -1.0994241939 
C        3.2917447525         5.6765323045        -0.3043521090 
H        2.9572973694         6.1651354678         0.6216974938 
H        2.8084478694         6.1842488386        -1.1570717289 
H        4.3844807981         5.8055077263        -0.3928846452 
