         102

C        2.2100064890         1.2115865568         3.2841950163 
O        2.2726995351        -0.2157074762         3.4063068596 
H        3.1059501297         1.5495854004         2.7494191986 
H        2.1793511027         1.7048187224         4.2696649804 
H        1.3283957901         1.5228209241         2.7038969332 
H        1.4241379112        -0.5297662863         3.8612619216 
O        2.1019303827         4.2344751783         1.9540327320 
H        2.9504920066         3.9204163682         1.4990776700 
C        2.1646234288         5.6617692114         2.0761445753 
H        3.0462341276         5.9730035787         2.6564426584 
H        2.1952788151         6.1550013770         1.0906746112 
H        1.2686797881         5.9997680550         2.6109203930 
H        0.7495767252         3.7322026322         1.1981109853 
O       -0.0971904497         3.4863327285         0.7062218380 
C       -0.0593200583         4.1454874471        -0.5731544095 
H        0.0258300793         5.2395840472        -0.4648667866 
H        0.7808727967         3.7798381982        -1.1821139309 
H       -0.9931591418         3.9144594063        -1.1001903798 
H        4.3579618295         0.7894013927         0.4648667866 
C        4.4431119671        -0.3046952075         0.5731544095 
H        3.6029191121        -0.6703444564         1.1821139309 
O        4.4809823585        -0.9638499261        -0.7062218380 
H        5.3769510506        -0.5357232483         1.1001903798 
H        3.6342151836        -0.7179800223        -1.1981109853 
C       -2.2100064890        -3.2385960977        -3.2841950163 
H       -1.3283957901        -2.9273617304        -2.7038969332 
H       -2.1793511027        -2.7453639321        -4.2696649804 
H       -3.1059501297        -2.9005972541        -2.7494191986 
O       -2.2726995351        -4.6658901308        -3.4063068596 
H       -1.4241379112        -4.9799489409        -3.8612619216 
O       -2.1019303827        -0.2157074762        -1.9540327320 
C       -2.1646234288         1.2115865568        -2.0761445753 
H       -2.9504920066        -0.5297662863        -1.4990776700 
H       -1.2686797881         1.5495854004        -2.6109203930 
H       -2.1952788151         1.7048187224        -1.0906746112 
H       -3.0462341276         1.5228209241        -2.6564426584 
H       -0.7495767252        -0.7179800223        -1.1981109853 
O        0.0971904497        -0.9638499261        -0.7062218380 
C        0.0593200583        -0.3046952075         0.5731544095 
H       -0.7808727967        -0.6703444564         1.1821139309 
H       -0.0258300793         0.7894013927         0.4648667866 
H        0.9931591418        -0.5357232483         1.1001903798 
O       -4.2866014591        -0.9638499261        -0.7062218380 
H       -5.1333686340        -0.7179800223        -1.1981109853 
C       -4.3244718505        -0.3046952075         0.5731544095 
H       -5.1646647055        -0.6703444564         1.1821139309 
H       -4.4096219881         0.7894013927         0.4648667866 
H       -3.3906327670        -0.5357232483         1.1001903798 
C       -0.0593200583        -4.7548778620        -0.5731544095 
H        0.0258300793        -3.6607812619        -0.4648667866 
H        0.7808727967        -5.1205271109        -1.1821139309 
O       -0.0971904497        -5.4140325806         0.7062218380 
H       -0.9931591418        -4.9859059028        -1.1001903798 
H        0.7495767252        -5.1681626769         1.1981109853 
H       -0.7717108057        -0.6703444564        -4.1782256607 
C        0.0684820493        -0.3046952075        -4.7871851821 
H       -0.0166680882         0.7894013927        -4.8954728050 
O        0.1063524407        -0.9638499261        -6.0665614296 
H        1.0023211329        -0.5357232483        -4.2601492118 
H       -0.7404147342        -0.7179800223        -6.5584505769 
C       -2.2191684800        -3.2385960977         2.0761445753 
H       -1.3375577812        -2.9273617304         2.6564426584 
H       -2.1885130937        -2.7453639321         1.0906746112 
H       -3.1151121207        -2.9005972541         2.6109203930 
O       -2.2818615261        -4.6658901308         1.9540327320 
H       -1.4332999022        -4.9799489409         1.4990776700 
O       -2.1110923737        -0.2157074762         3.4063068596 
C       -2.1737854198         1.2115865568         3.2841950163 
H       -2.9596539976        -0.5297662863         3.8612619216 
H       -1.2778417791         1.5495854004         2.7494191986 
H       -2.2044408061         1.7048187224         4.2696649804 
H       -3.0553961187         1.5228209241         2.7038969332 
H       -0.7587387162        -0.7179800223         4.1622286063 
O        0.0880284587        -0.9638499261         4.6541177536 
C        0.0501580672        -0.3046952075         5.9334940010 
H       -0.7900347877        -0.6703444564         6.5424535225 
H       -0.0349920703         0.7894013927         5.8252063782 
H        0.9839971508        -0.5357232483         6.4605299714 
O       -2.2818615261         4.2344751783         1.9540327320 
H       -1.4332999022         3.9204163682         1.4990776700 
C       -2.2191684800         5.6617692114         2.0761445753 
H       -1.3375577812         5.9730035787         2.6564426584 
H       -2.1885130937         6.1550013770         1.0906746112 
H       -3.1151121207         5.9997680550         2.6109203930 
C        2.1737854198        -3.2385960977        -3.2841950163 
H        3.0553961187        -2.9273617304        -2.7038969332 
H        2.2044408061        -2.7453639321        -4.2696649804 
H        1.2778417791        -2.9005972541        -2.7494191986 
O        2.1110923737        -4.6658901308        -3.4063068596 
H        2.9596539976        -4.9799489409        -3.8612619216 
O        2.2818615261        -0.2157074762        -1.9540327320 
C        2.2191684800         1.2115865568        -2.0761445753 
H        1.4332999022        -0.5297662863        -1.4990776700 
H        3.1151121207         1.5495854004        -2.6109203930 
H        2.1885130937         1.7048187224        -1.0906746112 
H        1.3375577812         1.5228209241        -2.6564426584 
C        2.1646234288        -3.2385960977         2.0761445753 
H        3.0462341276        -2.9273617304         2.6564426584 
H        2.1952788151        -2.7453639321         1.0906746112 
H        1.2686797881        -2.9005972541         2.6109203930 
O        2.1019303827        -4.6658901308         1.9540327320 
H        2.9504920066        -4.9799489409         1.4990776700 
