         102

C        2.4128019288         1.1922921587         0.6520249183 
O        1.6509218885         0.3336992529         1.5154282988 
H        1.8408634442         1.4745166625        -0.2456439973 
H        2.7103215851         2.1075734247         1.1886615057 
H        3.3200755933         0.6549540280         0.3490201781 
H        0.9036122987         0.8771835198         1.9265609900 
H        2.1075734247         4.3624128980         0.0688915712 
C        1.1922921587         4.6599325543        -0.4677450162 
O        0.3336992529         5.4218125946         0.3956583643 
H        0.6549540280         3.7526588898        -0.7707497565 
H        1.4745166625         5.2318710389        -1.3654139318 
H        0.8771835198         6.1691221844         0.8067910554 
H        1.8408634442         1.4745166625         4.2334357408 
C        2.4128019288         1.1922921587         5.1311046564 
O        1.6509218885         0.3336992529         5.9945080369 
H        2.7103215851         2.1075734247         5.6677412438 
H        3.3200755933         0.6549540280         4.8280999162 
H        0.9036122987         0.8771835198         6.4056407281 
C       -2.4128019288        -1.1922921587        -1.5875149507 
H       -1.8408634442        -1.4745166625        -2.4851838663 
H       -2.7103215851        -2.1075734247        -1.0508783633 
H       -3.3200755933        -0.6549540280        -1.8905196910 
O       -1.6509218885        -0.3336992529        -0.7241115703 
H       -0.9036122987        -0.8771835198        -0.3129788791 
H       -0.6549540280        -3.7526588898        -3.0102896255 
C       -1.1922921587        -4.6599325543        -2.7072848853 
H       -1.4745166625        -5.2318710389        -3.6049538009 
O       -0.3336992529        -5.4218125946        -1.8438815048 
H       -2.1075734247        -4.3624128980        -2.1706482979 
H       -0.8771835198        -6.1691221844        -1.4327488136 
C       -1.1922921587        -4.6599325543         1.7717948528 
H       -1.4745166625        -5.2318710389         0.8741259372 
H       -0.6549540280        -3.7526588898         1.4687901126 
O       -0.3336992529        -5.4218125946         2.6351982333 
H       -2.1075734247        -4.3624128980         2.3084314402 
H       -0.8771835198        -6.1691221844         3.0463309245 
C       -2.4128019288        -1.1922921587         2.8915647874 
H       -1.8408634442        -1.4745166625         1.9938958718 
H       -2.7103215851        -2.1075734247         3.4282013748 
H       -3.3200755933        -0.6549540280         2.5885600471 
O       -1.6509218885        -0.3336992529         3.7549681678 
H       -0.9036122987        -0.8771835198         4.1661008590 
C       -1.1922921587         2.4128019288        -2.7072848853 
H       -1.4745166625         1.8408634442        -3.6049538009 
H       -0.6549540280         3.3200755933        -3.0102896255 
O       -0.3336992529         1.6509218885        -1.8438815048 
H       -2.1075734247         2.7103215851        -2.1706482979 
H       -0.8771835198         0.9036122987        -1.4327488136 
C       -1.1922921587         2.4128019288         1.7717948528 
H       -1.4745166625         1.8408634442         0.8741259372 
H       -0.6549540280         3.3200755933         1.4687901126 
O       -0.3336992529         1.6509218885         2.6351982333 
H       -2.1075734247         2.7103215851         2.3084314402 
H       -0.8771835198         0.9036122987         3.0463309245 
C       -4.6599325543         1.1922921587         0.6520249183 
O       -5.4218125946         0.3336992529         1.5154282988 
H       -5.2318710389         1.4745166625        -0.2456439973 
H       -4.3624128980         2.1075734247         1.1886615057 
H       -3.7526588898         0.6549540280         0.3490201781 
H       -6.1691221844         0.8771835198         1.9265609900 
C        1.1922921587        -2.4128019288        -0.4677450162 
H        2.1075734247        -2.7103215851         0.0688915712 
O        0.3336992529        -1.6509218885         0.3956583643 
H        0.6549540280        -3.3200755933        -0.7707497565 
H        1.4745166625        -1.8408634442        -1.3654139318 
H        0.8771835198        -0.9036122987         0.8067910554 
C        4.6599325543        -1.1922921587        -1.5875149507 
H        5.2318710389        -1.4745166625        -2.4851838663 
H        4.3624128980        -2.1075734247        -1.0508783633 
H        3.7526588898        -0.6549540280        -1.8905196910 
O        5.4218125946        -0.3336992529        -0.7241115703 
H        6.1691221844        -0.8771835198        -0.3129788791 
O        0.3336992529        -1.6509218885        -4.0834213738 
C        1.1922921587        -2.4128019288        -4.9468247543 
H        0.8771835198        -0.9036122987        -3.6722886827 
H        2.1075734247        -2.7103215851        -4.4101881669 
H        0.6549540280        -3.3200755933        -5.2498294946 
H        1.4745166625        -1.8408634442        -5.8444936699 
C        1.1922921587        -2.4128019288         4.0113347219 
H        2.1075734247        -2.7103215851         4.5479713093 
O        0.3336992529        -1.6509218885         4.8747381024 
H        0.6549540280        -3.3200755933         3.7083299816 
H        1.4745166625        -1.8408634442         3.1136658063 
H        0.8771835198        -0.9036122987         5.2858707935 
H        3.7526588898        -0.6549540280         2.5885600471 
C        4.6599325543        -1.1922921587         2.8915647874 
H        5.2318710389        -1.4745166625         1.9938958718 
H        4.3624128980        -2.1075734247         3.4282013748 
O        5.4218125946        -0.3336992529         3.7549681678 
H        6.1691221844        -0.8771835198         4.1661008590 
C        2.4128019288         1.1922921587        -3.8270548198 
O        1.6509218885         0.3336992529        -2.9636514393 
H        1.8408634442         1.4745166625        -4.7247237354 
H        2.7103215851         2.1075734247        -3.2904182324 
H        3.3200755933         0.6549540280        -4.1300595600 
H        0.9036122987         0.8771835198        -2.5525187481 
H       -0.9036122987        -0.8771835198        -4.7920586172 
O       -1.6509218885        -0.3336992529        -5.2031913084 
C       -2.4128019288        -1.1922921587        -6.0665946888 
H       -1.8408634442        -1.4745166625        -6.9642636044 
H       -2.7103215851        -2.1075734247        -5.5299581014 
H       -3.3200755933        -0.6549540280        -6.3695994291 
